<configuration>
   <input>
       <net-file value="ring.net.xml"/>
       <route-files value="ring.rou.xml"/>
       <gui-settings-file value="gui-settings.cfg"/>
      
   </input>
   <output>
   		<netstate-dump value="statistics.xml" />
	</output>
	<processing>
		   <step-method.ballistic value="true"/>
		   <collision.action value="none"/>
		   <step-length value="0.25"/>
	</processing>
</configuration>
