<?xml version="1.0" encoding="UTF-8"?>

<!-- generated on 12/21/20 15:13:41 by Eclipse SUMO netedit Version 1.5.0
<configuration xmlns:xsi="http://www.w3.org/2001/XMLSchema-instance" xsi:noNamespaceSchemaLocation="http://sumo.dlr.de/xsd/netconvertConfiguration.xsd">

    <input>
        <sumo-net-file value="C:\Users\dtrou\Desktop\ring_road_single_edge\ring.net.xml"/>
    </input>

    <output>
        <output-file value="C:\Users\dtrou\Desktop\ring_road_single_edge\ring.net.xml"/>
    </output>

    <processing>
        <geometry.min-radius.fix.railways value="false"/>
        <geometry.max-grade.fix value="false"/>
        <offset.disable-normalization value="true"/>
        <lefthand value="false"/>
    </processing>

    <junctions>
        <no-internal-links value="true"/>
        <no-turnarounds value="true"/>
        <junctions.corner-detail value="5"/>
        <junctions.limit-turn-speed value="5.5"/>
        <rectangular-lane-cut value="false"/>
    </junctions>

    <pedestrian>
        <walkingareas value="false"/>
    </pedestrian>

    <report>
        <aggregate-warnings value="5"/>
    </report>

</configuration>
-->

<net version="1.3" junctionCornerDetail="5" limitTurnSpeed="5.50" xmlns:xsi="http://www.w3.org/2001/XMLSchema-instance" xsi:noNamespaceSchemaLocation="http://sumo.dlr.de/xsd/net_file.xsd">

    <location netOffset="0.00,0.00" convBoundary="-10.00,0.00,1000.00,0.00" origBoundary="-10000000000.00,-10000000000.00,10000000000.00,10000000000.00" projParameter="!"/>

    <edge id="gneE0" from="gneJ3" to="gneJ1" priority="-1">
        <lane id="gneE0_0" index="0" speed="13.89" length="10.00" width="10.20" shape="-10.00,-5.10 0.00,-5.10"/>
    </edge>
    <edge id="road_stretch" from="gneJ1" to="gneJ2" priority="-1">
        <lane id="road_stretch_0" index="0" speed="40.00" length="1000.00" width="10.20" shape="0.00,-5.10 1000.00,-5.10"/>
    </edge>

    <junction id="gneJ1" type="priority" x="0.00" y="0.00" incLanes="gneE0_0" intLanes="" shape="0.00,0.00 0.00,-10.20 0.00,0.00">
        <request index="0" response="0" foes="0"/>
    </junction>
    <junction id="gneJ2" type="dead_end" x="1000.00" y="0.00" incLanes="road_stretch_0" intLanes="" shape="1000.00,-10.20 1000.00,0.00"/>
    <junction id="gneJ3" type="dead_end" x="-10.00" y="0.00" incLanes="" intLanes="" shape="-10.00,0.00 -10.00,-10.20"/>

    <connection from="gneE0" to="road_stretch" fromLane="0" toLane="0" dir="s" state="M"/>

</net>
