<?xml version="1.0" encoding="UTF-8"?>

<!-- generated on Κυρ 22 Νοε 2020 11:48:50 μμ EET by Eclipse SUMO netedit Version 1.7.0
<configuration xmlns:xsi="http://www.w3.org/2001/XMLSchema-instance" xsi:noNamespaceSchemaLocation="http://sumo.dlr.de/xsd/netconvertConfiguration.xsd">

    <input>
        <sumo-net-file value="/home/dtrou/github/sumo/bin/autobahn5kmf_sl.net.xml"/>
    </input>

    <output>
        <output-file value="/home/dtrou/github/sumo/bin/autobahn5kmf_sl.net.xml"/>
    </output>

    <processing>
        <geometry.min-radius.fix.railways value="false"/>
        <geometry.max-grade.fix value="false"/>
        <offset.disable-normalization value="true"/>
        <lefthand value="false"/>
    </processing>

    <junctions>
        <no-turnarounds value="true"/>
        <junctions.corner-detail value="5"/>
        <junctions.limit-turn-speed value="5.5"/>
        <rectangular-lane-cut value="false"/>
    </junctions>

    <pedestrian>
        <walkingareas value="false"/>
    </pedestrian>

    <netedit>
        <additional-files value="/home/dtrou/github/sumo/bin/detector.add.xml"/>
    </netedit>

    <report>
        <aggregate-warnings value="5"/>
    </report>

</configuration>
-->

<additional xmlns:xsi="http://www.w3.org/2001/XMLSchema-instance" xsi:noNamespaceSchemaLocation="http://sumo.dlr.de/xsd/additional_file.xsd">
    <e1Detector id="detec_0" lane="long_edge_0" pos="20.00" freq="900.00" file="e1Detector_detec_0.xml"/>
    <e1Detector id="detec_1" lane="long_edge_0" pos="120.00" freq="900.00" file="e1Detector_detec_1.xml"/>  
</additional>
