<?xml version="1.0" encoding="UTF-8"?>

<!-- generated on 03/07/23 12:37:42 by Eclipse SUMO netedit Version 1.5.0
<configuration xmlns:xsi="http://www.w3.org/2001/XMLSchema-instance" xsi:noNamespaceSchemaLocation="http://sumo.dlr.de/xsd/netconvertConfiguration.xsd">

    <input>
        <sumo-net-file value="D:\PhD\sumo_stuff\baseline_method\scenarios\highway_single_edge\autobahn5km.net.xml"/>
    </input>

    <output>
        <output-file value="D:\PhD\sumo_stuff\baseline_method\scenarios\highway_single_edge\autobahn5km.net.xml"/>
    </output>

    <processing>
        <geometry.min-radius.fix.railways value="false"/>
        <geometry.max-grade.fix value="false"/>
        <offset.disable-normalization value="true"/>
        <lefthand value="false"/>
    </processing>

    <junctions>
        <no-internal-links value="true"/>
        <no-turnarounds value="true"/>
        <junctions.corner-detail value="5"/>
        <junctions.limit-turn-speed value="5.5"/>
        <rectangular-lane-cut value="false"/>
    </junctions>

    <pedestrian>
        <walkingareas value="false"/>
    </pedestrian>

    <report>
        <aggregate-warnings value="5"/>
    </report>

</configuration>
-->

<net version="1.3" junctionCornerDetail="5" limitTurnSpeed="5.50" xmlns:xsi="http://www.w3.org/2001/XMLSchema-instance" xsi:noNamespaceSchemaLocation="http://sumo.dlr.de/xsd/net_file.xsd">

    <location netOffset="0.00,0.00" convBoundary="0.00,10.20,2000.00,10.20" origBoundary="-10000000000.00,-10000000000.00,10000000000.00,10000000000.00" projParameter="!"/>

    <edge id="long_edge" from="gneJ1" to="gneJ2" priority="-1">
        <lane id="long_edge_0" index="0" speed="50.00" length="2000.00" width="10.20" shape="0.00,5.10 2000.00,5.10"/>
    </edge>

    <junction id="gneJ1" type="dead_end" x="0.00" y="10.20" incLanes="" intLanes="" shape="0.00,10.20 0.00,0.00"/>
    <junction id="gneJ2" type="dead_end" x="2000.00" y="10.20" incLanes="long_edge_0" intLanes="" shape="2000.00,0.00 2000.00,10.20"/>

</net>
