<?xml version="1.0" encoding="UTF-8"?>


<net version="1.6" junctionCornerDetail="5" limitTurnSpeed="5.50" xmlns:xsi="http://www.w3.org/2001/XMLSchema-instance" xsi:noNamespaceSchemaLocation="http://sumo.dlr.de/xsd/net_file.xsd">

    <location netOffset="0.00,0.00" convBoundary="0.00,0.00,4000.00,0.00" origBoundary="-10000000000.00,-10000000000.00,10000000000.00,10000000000.00" projParameter="!"/>

    <edge id=":gneJ16_0" function="internal">
        <lane id=":gneJ16_0_0" index="0" speed="50.00" length="0.10" width="10.20" shape="500.00,-5.10 500.00,-5.10"/>
    </edge>
    <edge id=":gneJ2_0" function="internal">
        <lane id=":gneJ2_0_0" index="0" speed="50.00" length="8.00" width="10.20" shape="996.00,-5.10 1004.00,-5.10"/>
    </edge>
    <edge id=":gneJ3_0" function="internal">
        <lane id=":gneJ3_0_0" index="0" speed="50.00" length="8.00" width="10.20" shape="1346.00,-5.10 1354.00,-5.10"/>
    </edge>
    <edge id=":gneJ4_0" function="internal">
        <lane id=":gneJ4_0_0" index="0" speed="50.00" length="0.10" width="10.20" shape="2000.00,-5.10 2000.00,-5.10"/>
    </edge>
    <edge id=":gneJ5_0" function="internal">
        <lane id=":gneJ5_0_0" index="0" speed="50.00" length="8.00" width="10.20" shape="2506.00,-5.10 2514.00,-5.10"/>
    </edge>
    <edge id=":gneJ6_0" function="internal">
        <lane id=":gneJ6_0_0" index="0" speed="50.00" length="8.00" width="10.20" shape="2996.00,-5.10 3004.00,-5.10"/>
    </edge>

    <edge id="segment1" from="gneJ16" to="gneJ2" priority="-1">
        <lane id="segment1_0" index="0" speed="50.00" length="496.00" width="10.20" shape="500.00,-5.10 996.00,-5.10"/>
    </edge>
    <edge id="segment2" from="gneJ2" to="gneJ3" priority="-1">
        <lane id="segment2_0" index="0" speed="50.00" length="342.00" width="3.00" shape="1004.00,-11.70 1346.00,-11.70"/>
        <lane id="segment2_1" index="1" speed="50.00" length="342.00" width="10.20" shape="1004.00,-5.10 1346.00,-5.10"/>
    </edge>
    <edge id="segment3" from="gneJ3" to="gneJ4" priority="-1">
        <lane id="segment3_0" index="0" speed="50.00" length="646.00" width="10.20" shape="1354.00,-5.10 2000.00,-5.10"/>
    </edge>
    <edge id="segment4" from="gneJ4" to="gneJ5" priority="-1">
        <lane id="segment4_0" index="0" speed="50.00" length="506.00" width="10.20" shape="2000.00,-5.10 2506.00,-5.10"/>
    </edge>
    <edge id="segment5" from="gneJ5" to="gneJ6" priority="-1">
        <lane id="segment5_0" index="0" speed="50.00" length="482.00" width="3.00" acceleration="1" shape="2514.00,-11.70 2996.00,-11.70"/>
        <lane id="segment5_1" index="1" speed="50.00" length="482.00" width="10.20" shape="2514.00,-5.10 2996.00,-5.10"/>
    </edge>
    <edge id="segment6" from="gneJ6" to="gneJ1" priority="-1">
        <lane id="segment6_0" index="0" speed="50.00" length="496.00" width="10.20" shape="3004.00,-5.10 3500.00,-5.10"/>
    </edge>
    <edge id="warm_up" from="gneJ0" to="gneJ16" priority="-1">
        <lane id="warm_up_0" index="0" speed="50.00" length="500.00" width="10.20" shape="0.00,-5.10 500.00,-5.10"/>
    </edge>

    <junction id="gneJ0" type="dead_end" x="0.00" y="0.00" incLanes="" intLanes="" shape="0.00,0.00 0.00,-10.20"/>
    <junction id="gneJ1" type="dead_end" x="3500.00" y="0.00" incLanes="segment6_0" intLanes="" shape="3500.00,-10.20 3500.00,0.00"/>
    <junction id="gneJ13" type="dead_end" x="1000.00" y="0.00" incLanes="" intLanes="" shape="1000.00,0.00"/>
    <junction id="gneJ14" type="dead_end" x="500.00" y="0.00" incLanes="" intLanes="" shape="500.00,0.00"/>
    <junction id="gneJ16" type="priority" x="500.00" y="0.00" incLanes="warm_up_0" intLanes=":gneJ16_0_0" shape="500.00,0.00 500.00,-10.20 500.00,0.00">
        <request index="0" response="0" foes="0" cont="0"/>
    </junction>
    <junction id="gneJ17" type="dead_end" x="3500.00" y="0.00" incLanes="" intLanes="" shape="3500.00,0.00"/>
    <junction id="gneJ2" type="priority" x="1000.00" y="0.00" incLanes="segment1_0" intLanes=":gneJ2_0_0" shape="1004.00,0.00 1004.00,-13.20 1000.98,-12.42 999.02,-10.98 997.78,-10.42 996.00,-10.20 996.00,0.00">
        <request index="0" response="0" foes="0" cont="0"/>
    </junction>
    <junction id="gneJ3" type="priority" x="1350.00" y="0.00" incLanes="segment2_0 segment2_1" intLanes=":gneJ3_0_0" shape="1354.00,0.00 1354.00,-13.20 1346.00,-13.20 1346.00,0.00" customShape="1">
        <request index="0" response="0" foes="0" cont="0"/>
    </junction>
    <junction id="gneJ4" type="priority" x="2000.00" y="0.00" incLanes="segment3_0" intLanes=":gneJ4_0_0" shape="2000.00,0.00 2000.00,-10.20 2000.00,0.00">
        <request index="0" response="0" foes="0" cont="0"/>
    </junction>
    <junction id="gneJ5" type="priority" x="2510.00" y="0.00" incLanes="segment4_0" intLanes=":gneJ5_0_0" shape="2506.00,-13.20 2506.00,0.00 2514.00,0.00 2514.00,-13.20" customShape="1">
        <request index="0" response="0" foes="0" cont="0"/>
    </junction>
    <junction id="gneJ6" type="priority" x="3000.00" y="0.00" incLanes="segment5_0 segment5_1" intLanes=":gneJ6_0_0" shape="3004.00,0.00 3004.00,-10.20 3000.98,-10.98 2999.02,-12.42 2997.78,-12.98 2996.00,-13.20 2996.00,0.00">
        <request index="0" response="0" foes="0" cont="0"/>
    </junction>
    <junction id="gneJ7" type="dead_end" x="4000.00" y="0.00" incLanes="" intLanes="" shape="4000.00,0.00"/>
    <junction id="gneJ8" type="dead_end" x="3000.00" y="0.00" incLanes="" intLanes="" shape="3000.00,0.00"/>

    <connection from="segment1" to="segment2" fromLane="0" toLane="1" via=":gneJ2_0_0" dir="s" state="M"/>
    <connection from="segment2" to="segment3" fromLane="1" toLane="0" via=":gneJ3_0_0" dir="s" state="M"/>
    <connection from="segment3" to="segment4" fromLane="0" toLane="0" via=":gneJ4_0_0" dir="s" state="M"/>
    <connection from="segment4" to="segment5" fromLane="0" toLane="1" via=":gneJ5_0_0" dir="s" state="M"/>
    <connection from="segment5" to="segment6" fromLane="1" toLane="0" via=":gneJ6_0_0" dir="s" state="M"/>
    <connection from="warm_up" to="segment1" fromLane="0" toLane="0" via=":gneJ16_0_0" dir="s" state="M"/>

    <connection from=":gneJ16_0" to="segment1" fromLane="0" toLane="0" dir="s" state="M"/>
    <connection from=":gneJ2_0" to="segment2" fromLane="0" toLane="1" dir="s" state="M"/>
    <connection from=":gneJ3_0" to="segment3" fromLane="0" toLane="0" dir="s" state="M"/>
    <connection from=":gneJ4_0" to="segment4" fromLane="0" toLane="0" dir="s" state="M"/>
    <connection from=":gneJ5_0" to="segment5" fromLane="0" toLane="1" dir="s" state="M"/>
    <connection from=":gneJ6_0" to="segment6" fromLane="0" toLane="0" dir="s" state="M"/>

</net>
