<?xml version="1.0" encoding="UTF-8"?>

<!-- generated on Τρι 24 Νοε 2020 04:26:43 μμ EET by Eclipse SUMO netedit Version 1.7.0
<configuration xmlns:xsi="http://www.w3.org/2001/XMLSchema-instance" xsi:noNamespaceSchemaLocation="http://sumo.dlr.de/xsd/netconvertConfiguration.xsd">

    <output>
        <output-file value="/home/dtrou/github/sumo/bin/rings2.net.xml"/>
    </output>

    <processing>
        <offset.disable-normalization value="true"/>
    </processing>

    <junctions>
        <no-turnarounds value="true"/>
    </junctions>

    <report>
        <aggregate-warnings value="5"/>
    </report>

</configuration>
-->

<net version="1.6" junctionCornerDetail="5" limitTurnSpeed="5.50" xmlns:xsi="http://www.w3.org/2001/XMLSchema-instance" xsi:noNamespaceSchemaLocation="http://sumo.dlr.de/xsd/net_file.xsd">

    <location netOffset="0.00,0.00" convBoundary="0.00,-125.00,500.00,125.00" origBoundary="10000000000.00,10000000000.00,-10000000000.00,-10000000000.00" projParameter="!"/>

    <edge id=":gneJ0_0" function="internal">
        <lane id=":gneJ0_0_0" index="0" speed="6.94" length="8.29" width="10.20" shape="10.93,-3.61 9.54,-1.80 9.07,0.00 9.54,1.81 10.94,3.62"/>
    </edge>
    <edge id=":gneJ1_0" function="internal">
        <lane id=":gneJ1_0_0" index="0" speed="6.93" length="8.28" width="10.20" shape="489.07,3.61 490.47,1.80 490.93,0.00 490.47,-1.80 489.07,-3.61"/>
    </edge>

    <edge id="edge_down" from="gneJ1" to="gneJ0" priority="-1" shape="500.00,0.00 498.58,-1.42 497.16,-2.82 495.74,-4.23 494.32,-5.62 492.90,-7.00 491.48,-8.38 490.06,-9.75 488.64,-11.11 487.22,-12.46 485.80,-13.80 484.38,-15.14 482.95,-16.46 481.53,-17.78 480.11,-19.10 478.69,-20.40 477.27,-21.69 475.85,-22.98 474.43,-24.26 473.01,-25.53 471.59,-26.79 470.17,-28.05 468.75,-29.30 467.33,-30.54 465.91,-31.77 464.49,-32.99 463.07,-34.20 461.65,-35.41 460.23,-36.61 458.81,-37.80 457.39,-38.98 455.97,-40.16 454.55,-41.32 453.12,-42.48 451.70,-43.63 450.28,-44.77 448.86,-45.91 447.44,-47.03 446.02,-48.15 444.60,-49.26 443.18,-50.36 441.76,-51.46 440.34,-52.54 438.92,-53.62 437.50,-54.69 436.08,-55.75 434.66,-56.80 433.24,-57.85 431.82,-58.88 430.40,-59.91 428.98,-60.93 427.56,-61.95 426.14,-62.95 424.72,-63.95 423.30,-64.94 421.88,-65.92 420.45,-66.89 419.03,-67.85 417.61,-68.81 416.19,-69.76 414.77,-70.70 413.35,-71.63 411.93,-72.56 410.51,-73.47 409.09,-74.38 407.67,-75.28 406.25,-76.17 404.83,-77.06 403.41,-77.93 401.99,-78.80 400.57,-79.66 399.15,-80.51 397.73,-81.35 396.31,-82.19 394.89,-83.02 393.47,-83.84 392.05,-84.65 390.63,-85.45 389.20,-86.24 387.78,-87.03 386.36,-87.81 384.94,-88.58 383.52,-89.34 382.10,-90.10 380.68,-90.84 379.26,-91.58 377.84,-92.31 376.42,-93.04 375.00,-93.75 373.58,-94.46 372.16,-95.15 370.74,-95.84 369.32,-96.53 367.90,-97.20 366.48,-97.87 365.06,-98.52 363.64,-99.17 362.22,-99.82 360.80,-100.45 359.38,-101.07 357.95,-101.69 356.53,-102.30 355.11,-102.90 353.69,-103.50 352.27,-104.08 350.85,-104.66 349.43,-105.23 348.01,-105.79 346.59,-106.34 345.17,-106.89 343.75,-107.42 342.33,-107.95 340.91,-108.47 339.49,-108.98 338.07,-109.49 336.65,-109.98 335.23,-110.47 333.81,-110.95 332.39,-111.42 330.97,-111.89 329.55,-112.35 328.12,-112.79 326.70,-113.23 325.28,-113.66 323.86,-114.09 322.44,-114.50 321.02,-114.91 319.60,-115.31 318.18,-115.70 316.76,-116.09 315.34,-116.46 313.92,-116.83 312.50,-117.19 311.08,-117.54 309.66,-117.88 308.24,-118.22 306.82,-118.54 305.40,-118.86 303.98,-119.17 302.56,-119.48 301.14,-119.77 299.72,-120.06 298.30,-120.34 296.87,-120.61 295.45,-120.87 294.03,-121.12 292.61,-121.37 291.19,-121.61 289.77,-121.84 288.35,-122.06 286.93,-122.27 285.51,-122.48 284.09,-122.68 282.67,-122.87 281.25,-123.05 279.83,-123.22 278.41,-123.39 276.99,-123.54 275.57,-123.69 274.15,-123.83 272.73,-123.97 271.31,-124.09 269.89,-124.21 268.47,-124.32 267.05,-124.42 265.62,-124.51 264.20,-124.60 262.78,-124.67 261.36,-124.74 259.94,-124.80 258.52,-124.85 257.10,-124.90 255.68,-124.94 254.26,-124.96 252.84,-124.98 251.42,-125.00 250.00,-125.00 248.58,-125.00 247.16,-124.98 245.74,-124.96 244.32,-124.94 242.90,-124.90 241.48,-124.85 240.06,-124.80 238.64,-124.74 237.22,-124.67 235.80,-124.60 234.37,-124.51 232.95,-124.42 231.53,-124.32 230.11,-124.21 228.69,-124.09 227.27,-123.97 225.85,-123.83 224.43,-123.69 223.01,-123.54 221.59,-123.39 220.17,-123.22 218.75,-123.05 217.33,-122.87 215.91,-122.68 214.49,-122.48 213.07,-122.27 211.65,-122.06 210.23,-121.84 208.81,-121.61 207.39,-121.37 205.97,-121.12 204.55,-120.87 203.12,-120.61 201.70,-120.34 200.28,-120.06 198.86,-119.77 197.44,-119.48 196.02,-119.17 194.60,-118.86 193.18,-118.54 191.76,-118.22 190.34,-117.88 188.92,-117.54 187.50,-117.19 186.08,-116.83 184.66,-116.46 183.24,-116.09 181.82,-115.70 180.40,-115.31 178.98,-114.91 177.56,-114.50 176.14,-114.09 174.72,-113.66 173.30,-113.23 171.87,-112.79 170.45,-112.35 169.03,-111.89 167.61,-111.42 166.19,-110.95 164.77,-110.47 163.35,-109.98 161.93,-109.49 160.51,-108.98 159.09,-108.47 157.67,-107.95 156.25,-107.42 154.83,-106.89 153.41,-106.34 151.99,-105.79 150.57,-105.23 149.15,-104.66 147.73,-104.08 146.31,-103.50 144.89,-102.90 143.47,-102.30 142.05,-101.69 140.63,-101.07 139.20,-100.45 137.78,-99.82 136.36,-99.17 134.94,-98.52 133.52,-97.87 132.10,-97.20 130.68,-96.53 129.26,-95.84 127.84,-95.15 126.42,-94.46 125.00,-93.75 123.58,-93.04 122.16,-92.31 120.74,-91.58 119.32,-90.84 117.90,-90.10 116.48,-89.34 115.06,-88.58 113.64,-87.81 112.22,-87.03 110.80,-86.24 109.38,-85.45 107.95,-84.65 106.53,-83.84 105.11,-83.02 103.69,-82.19 102.27,-81.35 100.85,-80.51 99.43,-79.66 98.01,-78.80 96.59,-77.93 95.17,-77.06 93.75,-76.17 92.33,-75.28 90.91,-74.38 89.49,-73.47 88.07,-72.56 86.65,-71.63 85.23,-70.70 83.81,-69.76 82.39,-68.81 80.97,-67.85 79.55,-66.89 78.13,-65.92 76.70,-64.94 75.28,-63.95 73.86,-62.95 72.44,-61.95 71.02,-60.93 69.60,-59.91 68.18,-58.88 66.76,-57.85 65.34,-56.80 63.92,-55.75 62.50,-54.69 61.08,-53.62 59.66,-52.54 58.24,-51.46 56.82,-50.36 55.40,-49.26 53.98,-48.15 52.56,-47.03 51.14,-45.91 49.72,-44.77 48.30,-43.63 46.88,-42.48 45.45,-41.32 44.03,-40.16 42.61,-38.98 41.19,-37.80 39.77,-36.61 38.35,-35.41 36.93,-34.20 35.51,-32.99 34.09,-31.77 32.67,-30.54 31.25,-29.30 29.83,-28.05 28.41,-26.79 26.99,-25.53 25.57,-24.26 24.15,-22.98 22.73,-21.69 21.31,-20.40 19.89,-19.10 18.47,-17.78 17.05,-16.46 15.63,-15.14 14.20,-13.80 12.78,-12.46 11.36,-11.11 9.94,-9.75 8.52,-8.38 7.10,-7.00 5.68,-5.62 4.26,-4.23 2.84,-2.82 1.42,-1.42 0.00,0.00">
        <lane id="edge_down_0" index="0" speed="50.00" length="545.33" width="10.20" shape="489.07,-3.61 487.93,-4.72 486.53,-6.07 485.12,-7.42 483.71,-8.76 482.30,-10.09 480.90,-11.41 479.48,-12.72 478.06,-14.04 476.65,-15.35 475.25,-16.63 473.84,-17.92 472.43,-19.20 471.02,-20.47 469.62,-21.72 468.21,-22.98 466.79,-24.23 465.39,-25.47 463.98,-26.69 462.58,-27.91 461.17,-29.11 459.76,-30.32 458.35,-31.52 456.95,-32.71 455.54,-33.88 454.13,-35.06 452.73,-36.22 451.33,-37.36 449.91,-38.52 448.50,-39.66 447.09,-40.79 445.68,-41.92 444.28,-43.03 442.87,-44.14 441.47,-45.24 440.06,-46.33 438.65,-47.41 437.25,-48.48 435.84,-49.55 434.44,-50.61 433.04,-51.66 431.63,-52.70 430.23,-53.74 428.83,-54.75 427.42,-55.77 426.00,-56.79 424.60,-57.79 423.20,-58.78 421.79,-59.77 420.39,-60.75 419.00,-61.71 417.59,-62.67 416.17,-63.62 414.76,-64.58 413.36,-65.51 411.97,-66.44 410.56,-67.36 409.16,-68.28 407.76,-69.18 406.35,-70.08 404.95,-70.97 403.54,-71.85 402.14,-72.72 400.75,-73.58 399.34,-74.44 397.94,-75.29 396.54,-76.13 395.13,-76.96 393.72,-77.79 392.33,-78.61 390.93,-79.42 389.53,-80.21 388.15,-81.00 386.73,-81.78 385.31,-82.57 383.92,-83.33 382.52,-84.09 381.11,-84.84 379.72,-85.59 378.32,-86.32 376.92,-87.05 375.51,-87.77 374.11,-88.49 372.72,-89.19 371.33,-89.89 369.93,-90.56 368.51,-91.25 367.12,-91.93 365.72,-92.59 364.33,-93.25 362.94,-93.88 361.52,-94.53 360.12,-95.17 358.75,-95.78 357.35,-96.39 355.93,-97.01 354.53,-97.61 353.12,-98.20 351.73,-98.79 350.34,-99.36 348.94,-99.93 347.54,-100.49 346.15,-101.04 344.75,-101.58 343.36,-102.12 341.97,-102.64 340.56,-103.17 339.17,-103.68 337.77,-104.18 336.38,-104.68 334.99,-105.16 333.58,-105.64 332.19,-106.11 330.79,-106.58 329.38,-107.04 328.01,-107.49 326.62,-107.92 325.21,-108.35 323.80,-108.78 322.41,-109.20 321.03,-109.60 319.62,-110.01 318.23,-110.40 316.83,-110.78 315.44,-111.16 314.05,-111.52 312.65,-111.89 311.26,-112.24 309.88,-112.58 308.47,-112.92 307.09,-113.25 305.70,-113.56 304.30,-113.88 302.89,-114.19 301.51,-114.49 300.12,-114.77 298.72,-115.06 297.33,-115.33 295.94,-115.60 294.55,-115.85 293.15,-116.10 291.74,-116.34 290.36,-116.58 288.97,-116.80 287.59,-117.02 286.18,-117.22 284.78,-117.43 283.40,-117.63 282.01,-117.81 280.63,-117.99 279.22,-118.16 277.84,-118.32 276.45,-118.47 275.05,-118.62 273.65,-118.75 272.27,-118.89 270.88,-119.01 269.48,-119.13 268.09,-119.23 266.71,-119.33 265.30,-119.42 263.91,-119.51 262.53,-119.58 261.13,-119.65 259.74,-119.70 258.34,-119.75 256.94,-119.80 255.57,-119.84 254.19,-119.86 252.77,-119.88 251.38,-119.90 250.00,-119.90 248.62,-119.90 247.23,-119.88 245.81,-119.86 244.43,-119.84 243.06,-119.80 241.66,-119.75 240.26,-119.70 238.87,-119.65 237.47,-119.58 236.09,-119.51 234.69,-119.42 233.29,-119.33 231.91,-119.23 230.52,-119.13 229.12,-119.01 227.73,-118.89 226.35,-118.75 224.95,-118.62 223.55,-118.47 222.16,-118.32 220.78,-118.16 219.37,-117.99 217.99,-117.81 216.60,-117.63 215.22,-117.43 213.82,-117.22 212.41,-117.02 211.03,-116.80 209.64,-116.58 208.26,-116.34 206.85,-116.10 205.45,-115.85 204.05,-115.60 202.67,-115.33 201.28,-115.06 199.88,-114.77 198.49,-114.49 197.11,-114.19 195.70,-113.88 194.30,-113.56 192.91,-113.25 191.53,-112.92 190.12,-112.58 188.74,-112.24 187.35,-111.89 185.95,-111.52 184.56,-111.16 183.17,-110.78 181.77,-110.40 180.38,-110.01 178.97,-109.60 177.59,-109.20 176.20,-108.78 174.79,-108.35 173.37,-107.92 171.99,-107.49 170.62,-107.04 169.21,-106.58 167.81,-106.11 166.42,-105.64 165.01,-105.16 163.62,-104.68 162.23,-104.18 160.83,-103.68 159.44,-103.17 158.03,-102.64 156.64,-102.12 155.25,-101.58 153.85,-101.04 152.46,-100.49 151.06,-99.93 149.66,-99.36 148.27,-98.79 146.88,-98.20 145.47,-97.61 144.08,-97.01 142.66,-96.39 141.25,-95.78 139.88,-95.17 138.48,-94.53 137.06,-93.88 135.67,-93.25 134.28,-92.59 132.88,-91.93 131.49,-91.25 130.07,-90.56 128.67,-89.89 127.28,-89.19 125.89,-88.49 124.49,-87.77 123.08,-87.05 121.68,-86.32 120.28,-85.59 118.89,-84.84 117.48,-84.09 116.08,-83.33 114.69,-82.57 113.28,-81.78 111.86,-81.00 110.46,-80.21 109.07,-79.42 107.67,-78.61 106.28,-77.79 104.87,-76.96 103.46,-76.13 102.06,-75.29 100.66,-74.44 99.25,-73.58 97.86,-72.72 96.46,-71.85 95.05,-70.97 93.65,-70.08 92.24,-69.18 90.84,-68.28 89.44,-67.36 88.03,-66.44 86.64,-65.51 85.24,-64.58 83.83,-63.62 82.42,-62.67 81.01,-61.71 79.60,-60.74 78.21,-59.77 76.80,-58.78 75.40,-57.79 74.00,-56.79 72.58,-55.77 71.17,-54.75 69.77,-53.74 68.37,-52.70 66.96,-51.66 65.56,-50.61 64.16,-49.55 62.75,-48.48 61.35,-47.41 59.94,-46.33 58.53,-45.24 57.13,-44.14 55.72,-43.03 54.32,-41.92 52.91,-40.79 51.50,-39.66 50.09,-38.52 48.67,-37.36 47.27,-36.22 45.87,-35.06 44.46,-33.88 43.05,-32.71 41.65,-31.52 40.24,-30.32 38.83,-29.11 37.42,-27.91 36.02,-26.69 34.61,-25.47 33.21,-24.23 31.79,-22.98 30.38,-21.72 28.98,-20.47 27.57,-19.20 26.16,-17.92 24.75,-16.63 23.35,-15.35 21.94,-14.04 20.52,-12.72 19.11,-11.41 17.69,-10.08 16.29,-8.76 14.88,-7.42 13.47,-6.07 12.07,-4.72 10.93,-3.61"/>
    </edge>
    <edge id="edge_up" from="gneJ0" to="gneJ1" priority="-1" shape="0.00,0.00 2.84,2.82 4.26,4.23 5.68,5.62 7.10,7.00 8.52,8.38 9.94,9.75 11.36,11.11 12.78,12.46 14.20,13.80 15.63,15.14 17.05,16.46 18.47,17.78 19.89,19.10 21.31,20.40 22.73,21.69 24.15,22.98 25.57,24.26 26.99,25.53 28.41,26.79 29.83,28.05 31.25,29.30 32.67,30.54 34.09,31.77 35.51,32.99 36.93,34.20 38.35,35.41 39.77,36.61 41.19,37.80 42.61,38.98 44.03,40.16 45.45,41.32 46.87,42.48 48.30,43.63 49.72,44.77 51.14,45.91 52.56,47.03 53.98,48.15 55.40,49.26 56.82,50.36 58.24,51.46 59.66,52.54 61.08,53.62 62.50,54.69 63.92,55.75 65.34,56.80 66.76,57.85 68.18,58.88 69.60,59.91 71.02,60.93 72.44,61.95 73.86,62.95 75.28,63.95 76.70,64.94 78.12,65.92 79.55,66.89 80.97,67.85 82.39,68.81 83.81,69.76 85.23,70.70 86.65,71.63 88.07,72.56 89.49,73.47 90.91,74.38 92.33,75.28 93.75,76.17 95.17,77.06 96.59,77.93 98.01,78.80 99.43,79.66 100.85,80.51 102.27,81.35 103.69,82.19 105.11,83.02 106.53,83.84 107.95,84.65 109.37,85.45 110.80,86.24 112.22,87.03 113.64,87.81 115.06,88.58 116.48,89.34 117.90,90.10 119.32,90.84 120.74,91.58 122.16,92.31 123.58,93.04 125.00,93.75 126.42,94.46 127.84,95.15 129.26,95.84 130.68,96.53 132.10,97.20 133.52,97.87 134.94,98.52 136.36,99.17 137.78,99.82 139.20,100.45 140.63,101.07 142.05,101.69 143.47,102.30 144.89,102.90 146.31,103.50 147.73,104.08 149.15,104.66 150.57,105.23 151.99,105.79 153.41,106.34 154.83,106.89 156.25,107.42 157.67,107.95 159.09,108.47 160.51,108.98 161.93,109.49 163.35,109.98 164.77,110.47 166.19,110.95 167.61,111.42 169.03,111.89 170.45,112.35 171.88,112.79 173.30,113.23 174.72,113.66 176.14,114.09 177.56,114.50 178.98,114.91 180.40,115.31 181.82,115.70 183.24,116.09 184.66,116.46 186.08,116.83 187.50,117.19 188.92,117.54 190.34,117.88 191.76,118.22 193.18,118.54 194.60,118.86 196.02,119.17 197.44,119.48 198.86,119.77 200.28,120.06 201.70,120.34 203.13,120.61 204.55,120.87 205.97,121.12 207.39,121.37 208.81,121.61 210.23,121.84 211.65,122.06 213.07,122.27 214.49,122.48 215.91,122.68 217.33,122.87 218.75,123.05 220.17,123.22 221.59,123.39 223.01,123.54 224.43,123.69 225.85,123.83 227.27,123.97 228.69,124.09 230.11,124.21 231.53,124.32 232.95,124.42 234.38,124.51 235.80,124.60 237.22,124.67 238.64,124.74 240.06,124.80 241.48,124.85 242.90,124.90 244.32,124.94 245.74,124.96 247.16,124.98 248.58,125.00 250.00,125.00 251.42,125.00 252.84,124.98 254.26,124.96 255.68,124.94 257.10,124.90 258.52,124.85 259.94,124.80 261.36,124.74 262.78,124.67 264.20,124.60 265.63,124.51 267.05,124.42 268.47,124.32 269.89,124.21 271.31,124.09 272.73,123.97 274.15,123.83 275.57,123.69 276.99,123.54 278.41,123.39 279.83,123.22 281.25,123.05 282.67,122.87 284.09,122.68 285.51,122.48 286.93,122.27 288.35,122.06 289.77,121.84 291.19,121.61 292.61,121.37 294.03,121.12 295.45,120.87 296.88,120.61 298.30,120.34 299.72,120.06 301.14,119.77 302.56,119.48 303.98,119.17 305.40,118.86 306.82,118.54 308.24,118.22 309.66,117.88 311.08,117.54 312.50,117.19 313.92,116.83 315.34,116.46 316.76,116.09 318.18,115.70 319.60,115.31 321.02,114.91 322.44,114.50 323.86,114.09 325.28,113.66 326.70,113.23 328.13,112.79 329.55,112.35 330.97,111.89 332.39,111.42 333.81,110.95 335.23,110.47 336.65,109.98 338.07,109.49 339.49,108.98 340.91,108.47 342.33,107.95 343.75,107.42 345.17,106.89 346.59,106.34 348.01,105.79 349.43,105.23 350.85,104.66 352.27,104.08 353.69,103.50 355.11,102.90 356.53,102.30 357.95,101.69 359.37,101.07 360.80,100.45 362.22,99.82 363.64,99.17 365.06,98.52 366.48,97.87 367.90,97.20 369.32,96.53 370.74,95.84 372.16,95.15 373.58,94.46 375.00,93.75 376.42,93.04 377.84,92.31 379.26,91.58 380.68,90.84 382.10,90.10 383.52,89.34 384.94,88.58 386.36,87.81 387.78,87.03 389.20,86.24 390.62,85.45 392.05,84.65 393.47,83.84 394.89,83.02 396.31,82.19 397.73,81.35 399.15,80.51 400.57,79.66 401.99,78.80 403.41,77.93 404.83,77.06 406.25,76.17 407.67,75.28 409.09,74.38 410.51,73.47 411.93,72.56 413.35,71.63 414.77,70.70 416.19,69.76 417.61,68.81 419.03,67.85 420.45,66.89 421.87,65.92 423.30,64.94 424.72,63.95 426.14,62.95 427.56,61.95 428.98,60.93 430.40,59.91 431.82,58.88 433.24,57.85 434.66,56.80 436.08,55.75 437.50,54.69 438.92,53.62 440.34,52.54 441.76,51.46 443.18,50.36 444.60,49.26 446.02,48.15 447.44,47.03 448.86,45.91 450.28,44.77 451.70,43.63 453.12,42.48 454.55,41.32 455.97,40.16 457.39,38.98 458.81,37.80 460.23,36.61 461.65,35.41 463.07,34.20 464.49,32.99 465.91,31.77 467.33,30.54 468.75,29.30 470.17,28.05 471.59,26.79 473.01,25.53 474.43,24.26 475.85,22.98 477.27,21.69 478.69,20.40 480.11,19.10 481.53,17.78 482.95,16.46 484.37,15.14 485.80,13.80 487.22,12.46 488.64,11.11 490.06,9.75 491.48,8.38 492.90,7.00 494.32,5.62 495.74,4.23 497.16,2.82 498.58,1.42 500.00,0.00">
        <lane id="edge_up_0" index="0" speed="50.00" length="545.32" width="10.20" shape="10.94,3.62 12.07,4.72 13.47,6.07 14.88,7.42 16.29,8.76 17.69,10.08 19.11,11.41 20.52,12.72 21.94,14.04 23.35,15.35 24.75,16.63 26.16,17.92 27.57,19.20 28.98,20.47 30.38,21.72 31.79,22.98 33.21,24.23 34.61,25.47 36.02,26.69 37.42,27.91 38.83,29.11 40.24,30.32 41.65,31.52 43.05,32.71 44.46,33.88 45.87,35.06 47.27,36.22 48.68,37.37 50.08,38.52 51.49,39.65 52.91,40.79 54.32,41.92 55.72,43.03 57.13,44.14 58.53,45.24 59.94,46.33 61.35,47.41 62.75,48.48 64.16,49.55 65.56,50.61 66.96,51.66 68.37,52.70 69.77,53.74 71.17,54.75 72.58,55.77 74.00,56.79 75.40,57.79 76.80,58.78 78.21,59.77 79.61,60.75 81.00,61.71 82.41,62.67 83.83,63.62 85.24,64.58 86.64,65.51 88.03,66.44 89.44,67.36 90.84,68.28 92.24,69.18 93.65,70.08 95.05,70.97 96.46,71.85 97.86,72.72 99.25,73.58 100.66,74.44 102.06,75.29 103.46,76.13 104.87,76.96 106.28,77.79 107.67,78.61 109.07,79.42 110.47,80.21 111.85,81.00 113.27,81.78 114.69,82.57 116.08,83.33 117.48,84.09 118.89,84.84 120.28,85.59 121.68,86.32 123.08,87.05 124.49,87.77 125.89,88.49 127.28,89.19 128.67,89.89 130.07,90.56 131.49,91.25 132.88,91.93 134.28,92.59 135.67,93.25 137.06,93.88 138.48,94.53 139.88,95.17 141.25,95.78 142.66,96.39 144.08,97.01 145.47,97.61 146.88,98.20 148.27,98.79 149.66,99.36 151.06,99.93 152.46,100.49 153.85,101.04 155.25,101.58 156.64,102.12 158.03,102.64 159.44,103.17 160.83,103.68 162.23,104.18 163.62,104.68 165.01,105.16 166.42,105.64 167.81,106.11 169.21,106.58 170.62,107.04 171.99,107.49 173.38,107.92 174.79,108.35 176.20,108.78 177.59,109.20 178.97,109.60 180.38,110.01 181.77,110.40 183.17,110.78 184.56,111.16 185.95,111.52 187.35,111.89 188.74,112.24 190.12,112.58 191.53,112.92 192.91,113.25 194.30,113.56 195.70,113.88 197.11,114.19 198.49,114.49 199.88,114.77 201.28,115.06 202.67,115.33 204.06,115.60 205.45,115.85 206.85,116.10 208.26,116.34 209.64,116.58 211.03,116.80 212.41,117.02 213.82,117.22 215.22,117.43 216.60,117.63 217.99,117.81 219.37,117.99 220.78,118.16 222.16,118.32 223.55,118.47 224.95,118.62 226.35,118.75 227.73,118.89 229.12,119.01 230.52,119.13 231.91,119.23 233.29,119.33 234.70,119.42 236.09,119.51 237.47,119.58 238.87,119.65 240.26,119.70 241.66,119.75 243.06,119.80 244.43,119.84 245.81,119.86 247.23,119.88 248.62,119.90 250.00,119.90 251.38,119.90 252.77,119.88 254.19,119.86 255.57,119.84 256.94,119.80 258.34,119.75 259.74,119.70 261.13,119.65 262.53,119.58 263.91,119.51 265.31,119.42 266.71,119.33 268.09,119.23 269.48,119.13 270.88,119.01 272.27,118.89 273.65,118.75 275.05,118.62 276.45,118.47 277.84,118.32 279.22,118.16 280.63,117.99 282.01,117.81 283.40,117.63 284.78,117.43 286.18,117.22 287.59,117.02 288.97,116.80 290.36,116.58 291.74,116.34 293.15,116.10 294.55,115.85 295.95,115.60 297.33,115.33 298.72,115.06 300.12,114.77 301.51,114.49 302.89,114.19 304.30,113.88 305.70,113.56 307.09,113.25 308.47,112.92 309.88,112.58 311.26,112.24 312.65,111.89 314.05,111.52 315.44,111.16 316.83,110.78 318.23,110.40 319.62,110.01 321.03,109.60 322.41,109.20 323.80,108.78 325.21,108.35 326.63,107.92 328.01,107.49 329.38,107.04 330.79,106.58 332.19,106.11 333.58,105.64 334.99,105.16 336.38,104.68 337.77,104.18 339.17,103.68 340.56,103.17 341.97,102.64 343.36,102.12 344.75,101.58 346.15,101.04 347.54,100.49 348.94,99.93 350.34,99.36 351.73,98.79 353.12,98.20 354.53,97.61 355.92,97.01 357.34,96.39 358.75,95.78 360.12,95.17 361.52,94.53 362.94,93.88 364.33,93.25 365.72,92.59 367.12,91.93 368.51,91.25 369.93,90.56 371.33,89.89 372.72,89.19 374.11,88.49 375.51,87.77 376.92,87.05 378.32,86.32 379.72,85.59 381.11,84.84 382.52,84.09 383.92,83.33 385.31,82.57 386.72,81.78 388.14,81.00 389.54,80.21 390.93,79.42 392.33,78.61 393.72,77.79 395.13,76.96 396.54,76.13 397.94,75.29 399.34,74.44 400.75,73.58 402.14,72.72 403.54,71.85 404.95,70.97 406.35,70.08 407.76,69.18 409.16,68.28 410.56,67.36 411.97,66.44 413.36,65.51 414.76,64.58 416.17,63.62 417.58,62.67 418.99,61.71 420.40,60.74 421.79,59.77 423.20,58.78 424.60,57.79 426.00,56.79 427.42,55.77 428.83,54.75 430.23,53.74 431.63,52.70 433.04,51.66 434.44,50.61 435.84,49.55 437.25,48.48 438.65,47.41 440.06,46.33 441.47,45.24 442.87,44.14 444.28,43.03 445.68,41.92 447.09,40.79 448.50,39.66 449.91,38.52 451.33,37.36 452.73,36.22 454.13,35.06 455.54,33.88 456.95,32.71 458.35,31.52 459.76,30.32 461.17,29.11 462.58,27.91 463.98,26.69 465.39,25.47 466.79,24.23 468.21,22.98 469.62,21.72 471.02,20.47 472.43,19.20 473.84,17.92 475.25,16.63 476.65,15.35 478.06,14.04 479.48,12.72 480.89,11.41 482.31,10.08 483.71,8.76 485.12,7.42 486.53,6.07 487.93,4.72 489.07,3.61"/>
    </edge>

    <junction id="gneJ0" type="priority" x="0.00" y="0.00" incLanes="edge_down_0" intLanes=":gneJ0_0_0" shape="7.35,7.24 14.53,0.00 7.32,-7.21 5.26,-4.81 4.02,-2.40 3.61,0.01 4.03,2.42 5.28,4.83">
        <request index="0" response="0" foes="0" cont="0"/>
    </junction>
    <junction id="gneJ1" type="priority" x="500.00" y="0.00" incLanes="edge_up_0" intLanes=":gneJ1_0_0" shape="492.68,-7.21 485.47,0.00 492.68,7.21 494.74,4.81 495.98,2.40 496.39,-0.00 495.98,-2.40 494.74,-4.81">
        <request index="0" response="0" foes="0" cont="0"/>
    </junction>

    <connection from="edge_down" to="edge_up" fromLane="0" toLane="0" via=":gneJ0_0_0" dir="r" state="M"/>
    <connection from="edge_up" to="edge_down" fromLane="0" toLane="0" via=":gneJ1_0_0" dir="r" state="M"/>

    <connection from=":gneJ0_0" to="edge_up" fromLane="0" toLane="0" dir="r" state="M"/>
    <connection from=":gneJ1_0" to="edge_down" fromLane="0" toLane="0" dir="r" state="M"/>

</net>
