<routes>

    <vType id="lane_free_car_example" vClass="passenger" maxSpeed="40" carFollowModel="LaneFree" length="3.20" width="1.60" minGap="0" tau="0.4" minGapLat="0.3" color = "yellow"/>

    <vType id="lane_free_car_bicycle_model_example" vClass="passenger" maxSpeed="40" carFollowModel="LaneFree"  carMovementDynamics="Bicycle" length="3.20" width="1.60" minGap="0" tau="0.4" minGapLat="0.3" color = "yellow"/>
        
    <vTypeDistribution id="typedist1">
        <vType id="lane_free_car11" vClass="passenger" maxSpeed="40" carFollowModel="LaneFree" length="3.20" width="1.60" minGap="0" tau="0.4" minGapLat="0.3" color = "blue"  probability="0.1666"/>
        <vType id="lane_free_car22" vClass="passenger" maxSpeed="40" carFollowModel="LaneFree" length="3.90" width="1.70" minGap="0" tau="0.4" minGapLat="0.3" color = "green"  probability="0.1666"/>
        <vType id="lane_free_car33" vClass="passenger" maxSpeed="40" carFollowModel="LaneFree" length="4.25" width="1.80" minGap="0" tau="0.4" minGapLat="0.3" color = "magenta"  probability="0.1666"/>
        <vType id="lane_free_car44" vClass="passenger" maxSpeed="40" carFollowModel="LaneFree" length="4.55" width="1.82" minGap="0" tau="0.4" minGapLat="0.3" color = "orange"  probability="0.1666"/>
        <vType id="lane_free_car55" vClass="passenger" maxSpeed="40" carFollowModel="LaneFree" length="4.60" width="1.77" minGap="0" tau="0.4" minGapLat="0.3" color = "yellow"  probability="0.1666"/>
        <vType id="lane_free_car66" vClass="passenger" maxSpeed="40" carFollowModel="LaneFree" length="5.15" width="1.84" minGap="0" tau="0.4" minGapLat="0.3" color = "white"  probability="0.1666"/>
    </vTypeDistribution>
    
    <route id="route0"  edges="long_edge" leftBoundaryLevelPoints="10.2 7.2" leftBoundaryOffsets="100" leftBoundarySlopes="0.045" rightBoundaryLevelPoints="0 0" rightBoundaryOffsets="100" rightBoundarySlopes="0.05" rightBoundaryConstant="0" leftBoundaryVisualizerColor="orange" rightBoundaryVisualizerColor="red"/>

    <flow id="normal_flow" type="typedist1" begin="0" end="3600" number="10000" route="route0" departSpeed="30" departPos="0" />
    <flow id="normal_flow2" type="typedist1" begin="3600" end="5400" probability="0.55" route="route0" departSpeed="25" departPos="0" />
    
</routes>
