<?xml version="1.0" encoding="UTF-8"?>

<!-- generated on 6/5/2024 2:52:38 PM by Eclipse SUMO netedit Version 25e0e46d60
<configuration xmlns:xsi="http://www.w3.org/2001/XMLSchema-instance" xsi:noNamespaceSchemaLocation="http://sumo.dlr.de/xsd/netconvertConfiguration.xsd">

    <output>
        <output-file value="C:\My%20Data\SUMO\Supplementary\Intersection_VRU\intersection_VRU.net.xml"/>
    </output>

    <processing>
        <offset.disable-normalization value="true"/>
    </processing>

    <junctions>
        <no-internal-links value="false"/>
        <no-turnarounds value="true"/>
    </junctions>

    <report>
        <aggregate-warnings value="5"/>
    </report>

</configuration>
-->

<net version="1.6" junctionCornerDetail="5" limitTurnSpeed="5.50" xmlns:xsi="http://www.w3.org/2001/XMLSchema-instance" xsi:noNamespaceSchemaLocation="http://sumo.dlr.de/xsd/net_file.xsd">

    <location netOffset="0.00,0.00" convBoundary="-100.00,-100.00,100.00,100.00" origBoundary="10000000000.00,10000000000.00,-10000000000.00,-10000000000.00" projParameter="!"/>

    <edge id=":gneJ10_w0" function="walkingarea">
        <lane id=":gneJ10_w0_0" index="0" allow="pedestrian" speed="1.00" length="26.00" width="2.00" shape="-12.00,100.00 -14.00,100.00 14.00,100.00 12.00,100.00"/>
    </edge>
    <edge id=":gneJ11_0" function="internal">
        <lane id=":gneJ11_0_0" index="0" allow="bicycle" speed="5.77" length="2.41" width="2.00" shape="-11.00,15.50 -11.28,13.53 -11.50,13.17"/>
    </edge>
    <edge id=":gneJ11_1" function="internal">
        <lane id=":gneJ11_1_0" index="0" allow="bicycle" speed="13.89" length="31.00" width="2.00" shape="-11.00,15.50 -11.00,-15.50"/>
    </edge>
    <edge id=":gneJ11_2" function="internal">
        <lane id=":gneJ11_2_0" index="0" allow="bicycle" speed="13.50" length="3.22" width="2.00" shape="-11.00,15.50 -10.54,12.31"/>
    </edge>
    <edge id=":gneJ11_3" function="internal">
        <lane id=":gneJ11_3_0" index="0" disallow="pedestrian" speed="9.21" length="10.07" width="10.00" shape="-5.00,15.50 -5.66,10.91 -7.62,7.62 -9.00,6.80"/>
    </edge>
    <edge id=":gneJ11_4" function="internal">
        <lane id=":gneJ11_4_0" index="0" disallow="pedestrian" speed="13.89" length="31.00" width="10.00" shape="-5.00,15.50 -5.00,-15.50"/>
    </edge>
    <edge id=":gneJ11_5" function="internal">
        <lane id=":gneJ11_5_0" index="0" disallow="pedestrian" speed="12.00" length="4.10" width="10.00" shape="-5.00,15.50 -3.89,11.55"/>
    </edge>
    <edge id=":gneJ11_24" function="internal">
        <lane id=":gneJ11_24_0" index="0" allow="bicycle" speed="5.77" length="4.84" width="2.00" shape="-11.50,13.17 -12.12,12.13 -13.53,11.28 -15.50,11.00"/>
    </edge>
    <edge id=":gneJ11_25" function="internal">
        <lane id=":gneJ11_25_0" index="0" allow="bicycle" speed="13.50" length="39.52" width="2.00" shape="-10.54,12.31 -9.34,3.91 -4.38,-4.38 3.91,-9.34 15.50,-11.00"/>
    </edge>
    <edge id=":gneJ11_26" function="internal">
        <lane id=":gneJ11_26_0" index="0" disallow="pedestrian" speed="9.21" length="6.86" width="10.00" shape="-9.00,6.80 -10.91,5.66 -15.50,5.00"/>
    </edge>
    <edge id=":gneJ11_27" function="internal">
        <lane id=":gneJ11_27_0" index="0" disallow="pedestrian" speed="12.00" length="26.91" width="10.00" shape="-3.89,11.55 -3.05,8.55 1.92,1.92 8.55,-3.05 15.50,-5.00"/>
    </edge>
    <edge id=":gneJ11_6" function="internal">
        <lane id=":gneJ11_6_0" index="0" allow="bicycle" speed="5.77" length="7.26" width="2.00" shape="15.50,11.00 13.53,11.28 12.13,12.12 11.28,13.53 11.00,15.50"/>
    </edge>
    <edge id=":gneJ11_7" function="internal">
        <lane id=":gneJ11_7_0" index="0" allow="bicycle" speed="13.89" length="31.00" width="2.00" shape="15.50,11.00 -15.50,11.00"/>
    </edge>
    <edge id=":gneJ11_8" function="internal">
        <lane id=":gneJ11_8_0" index="0" allow="bicycle" speed="13.50" length="42.74" width="2.00" shape="15.50,11.00 3.91,9.34 -4.38,4.38 -9.34,-3.91 -11.00,-15.50"/>
    </edge>
    <edge id=":gneJ11_9" function="internal">
        <lane id=":gneJ11_9_0" index="0" disallow="pedestrian" speed="9.21" length="16.93" width="10.00" shape="15.50,5.00 10.91,5.66 7.62,7.62 5.66,10.91 5.00,15.50"/>
    </edge>
    <edge id=":gneJ11_10" function="internal">
        <lane id=":gneJ11_10_0" index="0" disallow="pedestrian" speed="13.89" length="31.00" width="10.00" shape="15.50,5.00 -15.50,5.00"/>
    </edge>
    <edge id=":gneJ11_11" function="internal">
        <lane id=":gneJ11_11_0" index="0" disallow="pedestrian" speed="12.00" length="31.01" width="10.00" shape="15.50,5.00 8.55,3.05 1.92,-1.92 -3.05,-8.55 -5.00,-15.50"/>
    </edge>
    <edge id=":gneJ11_12" function="internal">
        <lane id=":gneJ11_12_0" index="0" allow="bicycle" speed="5.77" length="2.41" width="2.00" shape="11.00,-15.50 11.28,-13.53 11.50,-13.17"/>
    </edge>
    <edge id=":gneJ11_13" function="internal">
        <lane id=":gneJ11_13_0" index="0" allow="bicycle" speed="13.89" length="31.00" width="2.00" shape="11.00,-15.50 11.00,15.50"/>
    </edge>
    <edge id=":gneJ11_14" function="internal">
        <lane id=":gneJ11_14_0" index="0" allow="bicycle" speed="13.50" length="3.22" width="2.00" shape="11.00,-15.50 10.54,-12.31"/>
    </edge>
    <edge id=":gneJ11_15" function="internal">
        <lane id=":gneJ11_15_0" index="0" disallow="pedestrian" speed="9.21" length="10.07" width="10.00" shape="5.00,-15.50 5.66,-10.91 7.62,-7.62 9.00,-6.80"/>
    </edge>
    <edge id=":gneJ11_16" function="internal">
        <lane id=":gneJ11_16_0" index="0" disallow="pedestrian" speed="13.89" length="31.00" width="10.00" shape="5.00,-15.50 5.00,15.50"/>
    </edge>
    <edge id=":gneJ11_17" function="internal">
        <lane id=":gneJ11_17_0" index="0" disallow="pedestrian" speed="12.00" length="4.10" width="10.00" shape="5.00,-15.50 3.89,-11.55"/>
    </edge>
    <edge id=":gneJ11_28" function="internal">
        <lane id=":gneJ11_28_0" index="0" allow="bicycle" speed="5.77" length="4.84" width="2.00" shape="11.50,-13.17 12.12,-12.13 13.53,-11.28 15.50,-11.00"/>
    </edge>
    <edge id=":gneJ11_29" function="internal">
        <lane id=":gneJ11_29_0" index="0" allow="bicycle" speed="13.50" length="39.52" width="2.00" shape="10.54,-12.31 9.34,-3.91 4.38,4.38 -3.91,9.34 -15.50,11.00"/>
    </edge>
    <edge id=":gneJ11_30" function="internal">
        <lane id=":gneJ11_30_0" index="0" disallow="pedestrian" speed="9.21" length="6.86" width="10.00" shape="9.00,-6.80 10.91,-5.66 15.50,-5.00"/>
    </edge>
    <edge id=":gneJ11_31" function="internal">
        <lane id=":gneJ11_31_0" index="0" disallow="pedestrian" speed="12.00" length="26.91" width="10.00" shape="3.89,-11.55 3.05,-8.55 -1.92,-1.92 -8.55,3.05 -15.50,5.00"/>
    </edge>
    <edge id=":gneJ11_18" function="internal">
        <lane id=":gneJ11_18_0" index="0" allow="bicycle" speed="5.77" length="7.26" width="2.00" shape="-15.50,-11.00 -13.53,-11.28 -12.13,-12.12 -11.28,-13.53 -11.00,-15.50"/>
    </edge>
    <edge id=":gneJ11_19" function="internal">
        <lane id=":gneJ11_19_0" index="0" allow="bicycle" speed="13.89" length="31.00" width="2.00" shape="-15.50,-11.00 15.50,-11.00"/>
    </edge>
    <edge id=":gneJ11_20" function="internal">
        <lane id=":gneJ11_20_0" index="0" allow="bicycle" speed="13.50" length="42.74" width="2.00" shape="-15.50,-11.00 -3.91,-9.34 4.38,-4.38 9.34,3.91 11.00,15.50"/>
    </edge>
    <edge id=":gneJ11_21" function="internal">
        <lane id=":gneJ11_21_0" index="0" disallow="pedestrian" speed="9.21" length="16.93" width="10.00" shape="-15.50,-5.00 -10.91,-5.66 -7.62,-7.62 -5.66,-10.91 -5.00,-15.50"/>
    </edge>
    <edge id=":gneJ11_22" function="internal">
        <lane id=":gneJ11_22_0" index="0" disallow="pedestrian" speed="13.89" length="31.00" width="10.00" shape="-15.50,-5.00 15.50,-5.00"/>
    </edge>
    <edge id=":gneJ11_23" function="internal">
        <lane id=":gneJ11_23_0" index="0" disallow="pedestrian" speed="12.00" length="31.01" width="10.00" shape="-15.50,-5.00 -8.55,-3.05 -1.92,1.92 3.05,8.55 5.00,15.50"/>
    </edge>
    <edge id=":gneJ11_c0" function="crossing" crossingEdges="EX1 EN1">
        <lane id=":gneJ11_c0_0" index="0" allow="pedestrian" speed="1.00" length="24.00" width="4.00" shape="12.00,13.50 -12.00,13.50"/>
    </edge>
    <edge id=":gneJ11_c1" function="crossing" crossingEdges="EX0 EN0">
        <lane id=":gneJ11_c1_0" index="0" allow="pedestrian" speed="1.00" length="24.00" width="4.00" shape="13.50,-12.00 13.50,12.00"/>
    </edge>
    <edge id=":gneJ11_c2" function="crossing" crossingEdges="EX3 EN3">
        <lane id=":gneJ11_c2_0" index="0" allow="pedestrian" speed="1.00" length="24.00" width="4.00" shape="-12.00,-13.50 12.00,-13.50"/>
    </edge>
    <edge id=":gneJ11_c3" function="crossing" crossingEdges="EX2 EN2">
        <lane id=":gneJ11_c3_0" index="0" allow="pedestrian" speed="1.00" length="24.00" width="4.00" shape="-13.50,12.00 -13.50,-12.00"/>
    </edge>
    <edge id=":gneJ11_w0" function="walkingarea">
        <lane id=":gneJ11_w0_0" index="0" allow="pedestrian" speed="1.00" length="2.87" width="4.00" shape="-15.50,12.00 -15.50,14.00 -14.00,15.50 -12.00,15.50 -12.10,14.43 -12.39,13.56 -12.87,12.87 -13.56,12.39 -14.43,12.10"/>
    </edge>
    <edge id=":gneJ11_w1" function="walkingarea">
        <lane id=":gneJ11_w1_0" index="0" allow="pedestrian" speed="1.00" length="2.87" width="4.00" shape="12.00,15.50 14.00,15.50 15.50,14.00 15.50,12.00 14.43,12.10 13.56,12.39 12.87,12.87 12.39,13.56 12.10,14.43"/>
    </edge>
    <edge id=":gneJ11_w2" function="walkingarea">
        <lane id=":gneJ11_w2_0" index="0" allow="pedestrian" speed="1.00" length="2.87" width="4.00" shape="15.50,-12.00 15.50,-14.00 14.00,-15.50 12.00,-15.50 12.10,-14.43 12.39,-13.56 12.87,-12.87 13.56,-12.39 14.43,-12.10"/>
    </edge>
    <edge id=":gneJ11_w3" function="walkingarea">
        <lane id=":gneJ11_w3_0" index="0" allow="pedestrian" speed="1.00" length="2.87" width="4.00" shape="-12.00,-15.50 -14.00,-15.50 -15.50,-14.00 -15.50,-12.00 -14.43,-12.10 -13.56,-12.39 -12.87,-12.87 -12.39,-13.56 -12.10,-14.43"/>
    </edge>
    <edge id=":gneJ12_w0" function="walkingarea">
        <lane id=":gneJ12_w0_0" index="0" allow="pedestrian" speed="1.00" length="26.00" width="2.00" shape="12.00,-100.00 14.00,-100.00 -14.00,-100.00 -12.00,-100.00"/>
    </edge>
    <edge id=":gneJ13_w0" function="walkingarea">
        <lane id=":gneJ13_w0_0" index="0" allow="pedestrian" speed="1.00" length="26.00" width="2.00" shape="-100.00,-12.00 -100.00,-14.00 -100.00,14.00 -100.00,12.00"/>
    </edge>
    <edge id=":gneJ14_w0" function="walkingarea">
        <lane id=":gneJ14_w0_0" index="0" allow="pedestrian" speed="1.00" length="26.00" width="2.00" shape="100.00,12.00 100.00,14.00 100.00,-14.00 100.00,-12.00"/>
    </edge>

    <edge id="EN0" from="gneJ14" to="gneJ11" priority="-1">
        <lane id="EN0_0" index="0" allow="pedestrian" speed="13.89" length="84.50" width="2.00" shape="100.00,13.00 15.50,13.00"/>
        <lane id="EN0_1" index="1" allow="bicycle" speed="13.89" length="84.50" width="2.00" shape="100.00,11.00 15.50,11.00"/>
        <lane id="EN0_2" index="2" disallow="pedestrian" speed="13.89" length="84.50" width="10.00" shape="100.00,5.00 15.50,5.00"/>
    </edge>
    <edge id="EN1" from="gneJ10" to="gneJ11" priority="-1" length="100.00">
        <lane id="EN1_0" index="0" allow="pedestrian" speed="13.89" length="100.00" width="2.00" shape="-13.00,100.00 -13.00,15.50"/>
        <lane id="EN1_1" index="1" allow="bicycle" speed="13.89" length="100.00" width="2.00" shape="-11.00,100.00 -11.00,15.50"/>
        <lane id="EN1_2" index="2" disallow="pedestrian" speed="13.89" length="100.00" width="10.00" shape="-5.00,100.00 -5.00,15.50"/>
    </edge>
    <edge id="EN2" from="gneJ13" to="gneJ11" priority="-1" length="100.00">
        <lane id="EN2_0" index="0" allow="pedestrian" speed="13.89" length="100.00" width="2.00" shape="-100.00,-13.00 -15.50,-13.00"/>
        <lane id="EN2_1" index="1" allow="bicycle" speed="13.89" length="100.00" width="2.00" shape="-100.00,-11.00 -15.50,-11.00"/>
        <lane id="EN2_2" index="2" disallow="pedestrian" speed="13.89" length="100.00" width="10.00" shape="-100.00,-5.00 -15.50,-5.00"/>
    </edge>
    <edge id="EN3" from="gneJ12" to="gneJ11" priority="-1">
        <lane id="EN3_0" index="0" allow="pedestrian" speed="13.89" length="84.50" width="2.00" shape="13.00,-100.00 13.00,-15.50"/>
        <lane id="EN3_1" index="1" allow="bicycle" speed="13.89" length="84.50" width="2.00" shape="11.00,-100.00 11.00,-15.50"/>
        <lane id="EN3_2" index="2" disallow="pedestrian" speed="13.89" length="84.50" width="10.00" shape="5.00,-100.00 5.00,-15.50"/>
    </edge>
    <edge id="EX0" from="gneJ11" to="gneJ14" priority="-1" length="100.00">
        <lane id="EX0_0" index="0" allow="pedestrian" speed="13.89" length="100.00" width="2.00" shape="15.50,-13.00 100.00,-13.00"/>
        <lane id="EX0_1" index="1" allow="bicycle" speed="13.89" length="100.00" width="2.00" shape="15.50,-11.00 100.00,-11.00"/>
        <lane id="EX0_2" index="2" disallow="pedestrian" speed="13.89" length="100.00" width="10.00" shape="15.50,-5.00 100.00,-5.00"/>
    </edge>
    <edge id="EX1" from="gneJ11" to="gneJ10" priority="-1">
        <lane id="EX1_0" index="0" allow="pedestrian" speed="13.89" length="84.50" width="2.00" shape="13.00,15.50 13.00,100.00"/>
        <lane id="EX1_1" index="1" allow="bicycle" speed="13.89" length="84.50" width="2.00" shape="11.00,15.50 11.00,100.00"/>
        <lane id="EX1_2" index="2" disallow="pedestrian" speed="13.89" length="84.50" width="10.00" shape="5.00,15.50 5.00,100.00"/>
    </edge>
    <edge id="EX2" from="gneJ11" to="gneJ13" priority="-1">
        <lane id="EX2_0" index="0" allow="pedestrian" speed="13.89" length="84.50" width="2.00" shape="-15.50,13.00 -100.00,13.00"/>
        <lane id="EX2_1" index="1" allow="bicycle" speed="13.89" length="84.50" width="2.00" shape="-15.50,11.00 -100.00,11.00"/>
        <lane id="EX2_2" index="2" disallow="pedestrian" speed="13.89" length="84.50" width="10.00" shape="-15.50,5.00 -100.00,5.00"/>
    </edge>
    <edge id="EX3" from="gneJ11" to="gneJ12" priority="-1" length="100.00">
        <lane id="EX3_0" index="0" allow="pedestrian" speed="13.89" length="100.00" width="2.00" shape="-13.00,-15.50 -13.00,-100.00"/>
        <lane id="EX3_1" index="1" allow="bicycle" speed="13.89" length="100.00" width="2.00" shape="-11.00,-15.50 -11.00,-100.00"/>
        <lane id="EX3_2" index="2" disallow="pedestrian" speed="13.89" length="100.00" width="10.00" shape="-5.00,-15.50 -5.00,-100.00"/>
    </edge>

    <junction id="gneJ10" type="dead_end" x="0.00" y="100.00" incLanes="EX1_0 EX1_1 EX1_2" intLanes="" shape="0.00,100.00 14.00,100.00 0.00,100.00"/>
    <junction id="gneJ11" type="priority" x="0.00" y="0.00" incLanes="EN1_0 EN1_1 EN1_2 EN0_0 EN0_1 EN0_2 EN3_0 EN3_1 EN3_2 EN2_0 EN2_1 EN2_2 :gneJ11_w1_0 :gneJ11_w2_0 :gneJ11_w3_0 :gneJ11_w0_0" intLanes=":gneJ11_24_0 :gneJ11_1_0 :gneJ11_25_0 :gneJ11_26_0 :gneJ11_4_0 :gneJ11_27_0 :gneJ11_6_0 :gneJ11_7_0 :gneJ11_8_0 :gneJ11_9_0 :gneJ11_10_0 :gneJ11_11_0 :gneJ11_28_0 :gneJ11_13_0 :gneJ11_29_0 :gneJ11_30_0 :gneJ11_16_0 :gneJ11_31_0 :gneJ11_18_0 :gneJ11_19_0 :gneJ11_20_0 :gneJ11_21_0 :gneJ11_22_0 :gneJ11_23_0 :gneJ11_c0_0 :gneJ11_c1_0 :gneJ11_c2_0 :gneJ11_c3_0" shape="-14.00,15.50 14.00,15.50 14.17,14.67 14.37,14.38 14.67,14.17 15.04,14.04 15.50,14.00 15.50,-14.00 14.67,-14.17 14.38,-14.37 14.17,-14.67 14.04,-15.04 14.00,-15.50 -14.00,-15.50 -14.17,-14.67 -14.37,-14.38 -14.67,-14.17 -15.04,-14.04 -15.50,-14.00 -15.50,14.00 -14.67,14.17 -14.38,14.37 -14.17,14.67 -14.04,15.04">
        <request index="0"  response="1000000000000000000000000000" foes="1001000000000100000010000000" cont="1"/>
        <request index="1"  response="0000000000000000000000000000" foes="0101111111100100010110001000" cont="0"/>
        <request index="2"  response="0010000000111111000000010000" foes="0011110110111111110110011000" cont="1"/>
        <request index="3"  response="1000000000000000000000000110" foes="1001000000100100010010000110" cont="1"/>
        <request index="4"  response="0000000000000000000000000000" foes="0101111110100100110110000100" cont="0"/>
        <request index="5"  response="0010000000011110000000000000" foes="0011110100011110110110000000" cont="1"/>
        <request index="6"  response="0001000000000010000000000000" foes="0011000100000010000000000000" cont="0"/>
        <request index="7"  response="0000000000010110000000111111" foes="1010100100010110001000111111" cont="0"/>
        <request index="8"  response="0100111111110110010000110110" foes="0110111111110110011000110110" cont="0"/>
        <request index="9"  response="0001000000010010000110000000" foes="0011100100010010000110000000" cont="0"/>
        <request index="10" response="0000000000110110000000111110" foes="1010100100110110000100111110" cont="0"/>
        <request index="11" response="0100011110110110000000110100" foes="0110011110110110000000110100" cont="0"/>
        <request index="12" response="0010000000000000000000000000" foes="0110000010000000000000000100" cont="1"/>
        <request index="13" response="0000000000000000000000000000" foes="0101010110001000111111100100" cont="0"/>
        <request index="14" response="1000000000010000000000011011" foes="1100110110011000110110111111" cont="1"/>
        <request index="15" response="0010000000000110000000000000" foes="0110010010000110000000100100" cont="1"/>
        <request index="16" response="0000000000000000000000000000" foes="0101110110000100111110100100" cont="0"/>
        <request index="17" response="1000000000000000000000011010" foes="1100110110000000110100011110" cont="1"/>
        <request index="18" response="0100000000000000000000000010" foes="1100000000000000000100000010" cont="0"/>
        <request index="19" response="0000000000111111000000010110" foes="1010001000111111100100010110" cont="0"/>
        <request index="20" response="0001010000110110011011110110" foes="1001011000110110111111110110" cont="0"/>
        <request index="21" response="0100000110000000000000010010" foes="1100000110000000100100010010" cont="0"/>
        <request index="22" response="0000000000111110000000110110" foes="1010000100111110100100110110" cont="0"/>
        <request index="23" response="0001000000110100011010110110" foes="1001000000110100011110110110" cont="0"/>
        <request index="24" response="0000000000010010000000111111" foes="0000100100010010001001111111" cont="0"/>
        <request index="25" response="0000010010000000111111000000" foes="0000010010001001111111100100" cont="0"/>
        <request index="26" response="0000000000111111000000010010" foes="0000001001111111100100010010" cont="0"/>
        <request index="27" response="0000111111000000010010000000" foes="0000111111100100010010001001" cont="0"/>
    </junction>
    <junction id="gneJ12" type="dead_end" x="0.00" y="-100.00" incLanes="EX3_0 EX3_1 EX3_2" intLanes="" shape="0.00,-100.00 -14.00,-100.00 0.00,-100.00"/>
    <junction id="gneJ13" type="dead_end" x="-100.00" y="0.00" incLanes="EX2_0 EX2_1 EX2_2" intLanes="" shape="-100.00,0.00 -100.00,14.00 -100.00,0.00"/>
    <junction id="gneJ14" type="dead_end" x="100.00" y="0.00" incLanes="EX0_0 EX0_1 EX0_2" intLanes="" shape="100.00,0.00 100.00,-14.00 100.00,0.00"/>

    <junction id=":gneJ11_24_0" type="internal" x="-11.50" y="13.17" incLanes=":gneJ11_0_0" intLanes=":gneJ11_7_0 :gneJ11_10_0 :gneJ11_14_0 :gneJ11_17_0 :gneJ11_c0_0 :gneJ11_c3_0"/>
    <junction id=":gneJ11_25_0" type="internal" x="-10.54" y="12.31" incLanes=":gneJ11_2_0 :gneJ11_14_0 :gneJ11_17_0 EN3_1 EN3_2" intLanes=":gneJ11_29_0 :gneJ11_31_0 :gneJ11_4_0 :gneJ11_7_0 :gneJ11_8_0 :gneJ11_10_0 :gneJ11_11_0 :gneJ11_12_0 :gneJ11_13_0 :gneJ11_14_0 :gneJ11_15_0 :gneJ11_16_0 :gneJ11_17_0 :gneJ11_19_0 :gneJ11_20_0 :gneJ11_22_0 :gneJ11_23_0 :gneJ11_c0_0 :gneJ11_c1_0"/>
    <junction id=":gneJ11_26_0" type="internal" x="-9.00" y="6.80" incLanes=":gneJ11_3_0 EN1_1" intLanes=":gneJ11_1_0 :gneJ11_2_0 :gneJ11_7_0 :gneJ11_10_0 :gneJ11_14_0 :gneJ11_17_0 :gneJ11_c0_0 :gneJ11_c3_0"/>
    <junction id=":gneJ11_27_0" type="internal" x="-3.89" y="11.55" incLanes=":gneJ11_5_0 :gneJ11_14_0 EN3_1 EN3_2" intLanes=":gneJ11_29_0 :gneJ11_7_0 :gneJ11_8_0 :gneJ11_10_0 :gneJ11_11_0 :gneJ11_12_0 :gneJ11_13_0 :gneJ11_14_0 :gneJ11_15_0 :gneJ11_16_0 :gneJ11_19_0 :gneJ11_20_0 :gneJ11_22_0 :gneJ11_23_0 :gneJ11_c0_0 :gneJ11_c1_0"/>
    <junction id=":gneJ11_28_0" type="internal" x="11.50" y="-13.17" incLanes=":gneJ11_12_0" intLanes=":gneJ11_2_0 :gneJ11_5_0 :gneJ11_19_0 :gneJ11_22_0 :gneJ11_c1_0 :gneJ11_c2_0"/>
    <junction id=":gneJ11_29_0" type="internal" x="10.54" y="-12.31" incLanes=":gneJ11_14_0 EN1_1 EN1_2" intLanes=":gneJ11_0_0 :gneJ11_1_0 :gneJ11_2_0 :gneJ11_3_0 :gneJ11_4_0 :gneJ11_5_0 :gneJ11_7_0 :gneJ11_8_0 :gneJ11_10_0 :gneJ11_11_0 :gneJ11_16_0 :gneJ11_19_0 :gneJ11_20_0 :gneJ11_22_0 :gneJ11_23_0 :gneJ11_c2_0 :gneJ11_c3_0"/>
    <junction id=":gneJ11_30_0" type="internal" x="9.00" y="-6.80" incLanes=":gneJ11_15_0 EN3_1" intLanes=":gneJ11_2_0 :gneJ11_5_0 :gneJ11_13_0 :gneJ11_14_0 :gneJ11_19_0 :gneJ11_22_0 :gneJ11_c1_0 :gneJ11_c2_0"/>
    <junction id=":gneJ11_31_0" type="internal" x="3.89" y="-11.55" incLanes=":gneJ11_17_0 EN1_1 EN1_2" intLanes=":gneJ11_0_0 :gneJ11_1_0 :gneJ11_2_0 :gneJ11_3_0 :gneJ11_4_0 :gneJ11_7_0 :gneJ11_8_0 :gneJ11_10_0 :gneJ11_11_0 :gneJ11_19_0 :gneJ11_20_0 :gneJ11_22_0 :gneJ11_23_0 :gneJ11_c2_0 :gneJ11_c3_0"/>

    <connection from="EN0" to="EX1" fromLane="1" toLane="1" via=":gneJ11_6_0" dir="r" state="m"/>
    <connection from="EN0" to="EX2" fromLane="1" toLane="1" via=":gneJ11_7_0" dir="s" state="m"/>
    <connection from="EN0" to="EX3" fromLane="1" toLane="1" via=":gneJ11_8_0" dir="l" state="m"/>
    <connection from="EN0" to="EX1" fromLane="2" toLane="2" via=":gneJ11_9_0" dir="r" state="m"/>
    <connection from="EN0" to="EX2" fromLane="2" toLane="2" via=":gneJ11_10_0" dir="s" state="m"/>
    <connection from="EN0" to="EX3" fromLane="2" toLane="2" via=":gneJ11_11_0" dir="l" state="m"/>
    <connection from="EN1" to="EX2" fromLane="1" toLane="1" via=":gneJ11_0_0" dir="r" state="m"/>
    <connection from="EN1" to="EX3" fromLane="1" toLane="1" via=":gneJ11_1_0" dir="s" state="M"/>
    <connection from="EN1" to="EX0" fromLane="1" toLane="1" via=":gneJ11_2_0" dir="l" state="m"/>
    <connection from="EN1" to="EX2" fromLane="2" toLane="2" via=":gneJ11_3_0" dir="r" state="m"/>
    <connection from="EN1" to="EX3" fromLane="2" toLane="2" via=":gneJ11_4_0" dir="s" state="M"/>
    <connection from="EN1" to="EX0" fromLane="2" toLane="2" via=":gneJ11_5_0" dir="l" state="m"/>
    <connection from="EN2" to="EX3" fromLane="1" toLane="1" via=":gneJ11_18_0" dir="r" state="m"/>
    <connection from="EN2" to="EX0" fromLane="1" toLane="1" via=":gneJ11_19_0" dir="s" state="m"/>
    <connection from="EN2" to="EX1" fromLane="1" toLane="1" via=":gneJ11_20_0" dir="l" state="m"/>
    <connection from="EN2" to="EX3" fromLane="2" toLane="2" via=":gneJ11_21_0" dir="r" state="m"/>
    <connection from="EN2" to="EX0" fromLane="2" toLane="2" via=":gneJ11_22_0" dir="s" state="m"/>
    <connection from="EN2" to="EX1" fromLane="2" toLane="2" via=":gneJ11_23_0" dir="l" state="m"/>
    <connection from="EN3" to="EX0" fromLane="1" toLane="1" via=":gneJ11_12_0" dir="r" state="m"/>
    <connection from="EN3" to="EX1" fromLane="1" toLane="1" via=":gneJ11_13_0" dir="s" state="M"/>
    <connection from="EN3" to="EX2" fromLane="1" toLane="1" via=":gneJ11_14_0" dir="l" state="m"/>
    <connection from="EN3" to="EX0" fromLane="2" toLane="2" via=":gneJ11_15_0" dir="r" state="m"/>
    <connection from="EN3" to="EX1" fromLane="2" toLane="2" via=":gneJ11_16_0" dir="s" state="M"/>
    <connection from="EN3" to="EX2" fromLane="2" toLane="2" via=":gneJ11_17_0" dir="l" state="m"/>

    <connection from=":gneJ11_0" to="EX2" fromLane="0" toLane="1" via=":gneJ11_24_0" dir="r" state="m"/>
    <connection from=":gneJ11_24" to="EX2" fromLane="0" toLane="1" dir="r" state="M"/>
    <connection from=":gneJ11_1" to="EX3" fromLane="0" toLane="1" dir="s" state="M"/>
    <connection from=":gneJ11_2" to="EX0" fromLane="0" toLane="1" via=":gneJ11_25_0" dir="l" state="m"/>
    <connection from=":gneJ11_25" to="EX0" fromLane="0" toLane="1" dir="l" state="M"/>
    <connection from=":gneJ11_3" to="EX2" fromLane="0" toLane="2" via=":gneJ11_26_0" dir="r" state="m"/>
    <connection from=":gneJ11_26" to="EX2" fromLane="0" toLane="2" dir="r" state="M"/>
    <connection from=":gneJ11_4" to="EX3" fromLane="0" toLane="2" dir="s" state="M"/>
    <connection from=":gneJ11_5" to="EX0" fromLane="0" toLane="2" via=":gneJ11_27_0" dir="l" state="m"/>
    <connection from=":gneJ11_27" to="EX0" fromLane="0" toLane="2" dir="l" state="M"/>
    <connection from=":gneJ11_6" to="EX1" fromLane="0" toLane="1" dir="r" state="M"/>
    <connection from=":gneJ11_7" to="EX2" fromLane="0" toLane="1" dir="s" state="M"/>
    <connection from=":gneJ11_8" to="EX3" fromLane="0" toLane="1" dir="l" state="M"/>
    <connection from=":gneJ11_9" to="EX1" fromLane="0" toLane="2" dir="r" state="M"/>
    <connection from=":gneJ11_10" to="EX2" fromLane="0" toLane="2" dir="s" state="M"/>
    <connection from=":gneJ11_11" to="EX3" fromLane="0" toLane="2" dir="l" state="M"/>
    <connection from=":gneJ11_12" to="EX0" fromLane="0" toLane="1" via=":gneJ11_28_0" dir="r" state="m"/>
    <connection from=":gneJ11_28" to="EX0" fromLane="0" toLane="1" dir="r" state="M"/>
    <connection from=":gneJ11_13" to="EX1" fromLane="0" toLane="1" dir="s" state="M"/>
    <connection from=":gneJ11_14" to="EX2" fromLane="0" toLane="1" via=":gneJ11_29_0" dir="l" state="m"/>
    <connection from=":gneJ11_29" to="EX2" fromLane="0" toLane="1" dir="l" state="M"/>
    <connection from=":gneJ11_15" to="EX0" fromLane="0" toLane="2" via=":gneJ11_30_0" dir="r" state="m"/>
    <connection from=":gneJ11_30" to="EX0" fromLane="0" toLane="2" dir="r" state="M"/>
    <connection from=":gneJ11_16" to="EX1" fromLane="0" toLane="2" dir="s" state="M"/>
    <connection from=":gneJ11_17" to="EX2" fromLane="0" toLane="2" via=":gneJ11_31_0" dir="l" state="m"/>
    <connection from=":gneJ11_31" to="EX2" fromLane="0" toLane="2" dir="l" state="M"/>
    <connection from=":gneJ11_18" to="EX3" fromLane="0" toLane="1" dir="r" state="M"/>
    <connection from=":gneJ11_19" to="EX0" fromLane="0" toLane="1" dir="s" state="M"/>
    <connection from=":gneJ11_20" to="EX1" fromLane="0" toLane="1" dir="l" state="M"/>
    <connection from=":gneJ11_21" to="EX3" fromLane="0" toLane="2" dir="r" state="M"/>
    <connection from=":gneJ11_22" to="EX0" fromLane="0" toLane="2" dir="s" state="M"/>
    <connection from=":gneJ11_23" to="EX1" fromLane="0" toLane="2" dir="l" state="M"/>

    <connection from=":gneJ10_w0" to="EN1" fromLane="0" toLane="0" dir="s" state="M"/>
    <connection from="EX1" to=":gneJ10_w0" fromLane="0" toLane="0" dir="s" state="M"/>
    <connection from=":gneJ11_c0" to=":gneJ11_w0" fromLane="0" toLane="0" dir="s" state="M"/>
    <connection from=":gneJ11_c1" to=":gneJ11_w1" fromLane="0" toLane="0" dir="s" state="M"/>
    <connection from=":gneJ11_c2" to=":gneJ11_w2" fromLane="0" toLane="0" dir="s" state="M"/>
    <connection from=":gneJ11_c3" to=":gneJ11_w3" fromLane="0" toLane="0" dir="s" state="M"/>
    <connection from=":gneJ11_w0" to=":gneJ11_c3" fromLane="0" toLane="0" dir="s" state="m"/>
    <connection from=":gneJ11_w0" to="EX2" fromLane="0" toLane="0" dir="s" state="M"/>
    <connection from="EN1" to=":gneJ11_w0" fromLane="0" toLane="0" dir="s" state="M"/>
    <connection from=":gneJ11_w1" to=":gneJ11_c0" fromLane="0" toLane="0" dir="s" state="m"/>
    <connection from=":gneJ11_w1" to="EX1" fromLane="0" toLane="0" dir="s" state="M"/>
    <connection from="EN0" to=":gneJ11_w1" fromLane="0" toLane="0" dir="s" state="M"/>
    <connection from=":gneJ11_w2" to=":gneJ11_c1" fromLane="0" toLane="0" dir="s" state="m"/>
    <connection from=":gneJ11_w2" to="EX0" fromLane="0" toLane="0" dir="s" state="M"/>
    <connection from="EN3" to=":gneJ11_w2" fromLane="0" toLane="0" dir="s" state="M"/>
    <connection from=":gneJ11_w3" to=":gneJ11_c2" fromLane="0" toLane="0" dir="s" state="m"/>
    <connection from=":gneJ11_w3" to="EX3" fromLane="0" toLane="0" dir="s" state="M"/>
    <connection from="EN2" to=":gneJ11_w3" fromLane="0" toLane="0" dir="s" state="M"/>
    <connection from=":gneJ12_w0" to="EN3" fromLane="0" toLane="0" dir="s" state="M"/>
    <connection from="EX3" to=":gneJ12_w0" fromLane="0" toLane="0" dir="s" state="M"/>
    <connection from=":gneJ13_w0" to="EN2" fromLane="0" toLane="0" dir="s" state="M"/>
    <connection from="EX2" to=":gneJ13_w0" fromLane="0" toLane="0" dir="s" state="M"/>
    <connection from=":gneJ14_w0" to="EN0" fromLane="0" toLane="0" dir="s" state="M"/>
    <connection from="EX0" to=":gneJ14_w0" fromLane="0" toLane="0" dir="s" state="M"/>
</net>
