<?xml version="1.0" encoding="UTF-8"?>

<!-- generated on 02/03/23 14:41:27 by Eclipse SUMO netedit Version 1.5.0
<configuration xmlns:xsi="http://www.w3.org/2001/XMLSchema-instance" xsi:noNamespaceSchemaLocation="http://sumo.dlr.de/xsd/netconvertConfiguration.xsd">

    <input>
        <sumo-net-file value="C:\Users\Milad\Desktop\IBC\highway_onofframps_2directions_moving_boundaries_move_off_ramps_ahead\ramps.net.xml"/>
    </input>

    <output>
        <output-file value="C:\Users\Milad\Desktop\IBC\highway_onofframps_2directions_moving_boundaries_move_off_ramps_ahead\ramps.net.xml"/>
    </output>

    <processing>
        <geometry.min-radius.fix.railways value="false"/>
        <geometry.max-grade.fix value="false"/>
        <offset.disable-normalization value="true"/>
        <lefthand value="false"/>
    </processing>

    <junctions>
        <no-turnarounds value="true"/>
        <junctions.corner-detail value="5"/>
        <junctions.limit-turn-speed value="5.5"/>
        <rectangular-lane-cut value="false"/>
    </junctions>

    <pedestrian>
        <walkingareas value="false"/>
    </pedestrian>

    <netedit>
        <additional-files value="C:\Users\Milad\Desktop\IBC\highway_onofframps_2directions_moving_boundaries_move_off_ramps_ahead\additionals.add.xml"/>
    </netedit>

    <report>
        <aggregate-warnings value="5"/>
    </report>

</configuration>
-->

<additional xmlns:xsi="http://www.w3.org/2001/XMLSchema-instance" xsi:noNamespaceSchemaLocation="http://sumo.dlr.de/xsd/additional_file.xsd">
    <e1Detector id="1-on" lane="segment5_0" pos="11.00" freq="900.00" file="e3Detector_segment2_0_0.xml"/>
    <e1Detector id="1-s0" lane="segment1_0" pos="11.00" freq="900.00" file="e1Detector_segment2_0_0.xml"/>
    <e1Detector id="1-s1" lane="segment1_0" pos="490.60" freq="900.00" file="e1Detector_segment1_0_4.xml"/>
    <e1Detector id="1-s2" lane="segment3_0" pos="139.82" freq="900.00" file="e1Detector_segment3_0_5.xml"/>
    <e1Detector id="1-s3" lane="segment3_0" pos="640.44" freq="900.00" file="e1Detector_segment3_0_6.xml"/>
    <e1Detector id="1-s4" lane="segment4_0" pos="500.77" freq="900.00" file="e1Detector_segment4_0_7.xml"/>
    <e1Detector id="1-s5" lane="segment6_0" pos="3.01" freq="900.00" file="e1Detector_segment6_0_8.xml"/>
    <e1Detector id="1-s6" lane="segment6_0" pos="491.09" freq="900.00" file="e1Detector_segment6_0_10.xml"/>
    <e1Detector id="2-on" lane="segment3_opp_0" pos="11.00" freq="900.00" file="e4Detector_segment2_0_0.xml"/>
    <e1Detector id="2-s1" lane="segment1_opp_0" pos="490.40" freq="900.00" file="e1Detector_segment1_opp_0_17.xml"/>
    <e1Detector id="2-s2" lane="segment1_opp_0" pos="8.40" freq="900.00" file="e1Detector_segment1_opp_0_16.xml"/>
    <e1Detector id="2-s3" lane="segment2_opp_0" pos="3.61" freq="900.00" file="e1Detector_segment2_opp_0_15.xml"/>
    <e1Detector id="2-s4" lane="segment4.1_opp_0" pos="137.55" freq="900.00" file="e1Detector_segment4.1_opp_0_14.xml"/>
    <e1Detector id="2-s5" lane="segment5_opp_0" pos="490.76" freq="900.00" file="e1Detector_segment5_opp_0_13.xml"/>
    <e1Detector id="2-s6" lane="segment6_opp_0" pos="494.96" freq="900.00" file="e1Detector_segment6_opp_0_11.xml"/>
    <e1Detector id="2-s7" lane="segment6_opp_0" pos="11.00" freq="900.00" file="e2Detector_segment2_0_0.xml"/>
    <poly id="on_ramp_1_line" color="white" fill="0" lineWidth="0.10" layer="128.00" shape="2505.000000,-10.200000 2650.000000,-10.200000"/>
    <poly id="on_ramp_1_opp_line" color="white" fill="0" lineWidth="0.10" layer="128.00" shape="2000.000000,10.200000 1850.000000,10.200000"/>
</additional>
