<?xml version="1.0" encoding="UTF-8"?>

<!-- generated on 03/27/21 15:09:54 by Eclipse SUMO netedit Version 1.5.0
<configuration xmlns:xsi="http://www.w3.org/2001/XMLSchema-instance" xsi:noNamespaceSchemaLocation="http://sumo.dlr.de/xsd/netconvertConfiguration.xsd">

    <input>
        <sumo-net-file value="C:\Users\dtrou\Desktop\highwayonofframps_accel_lane\highwayonofframps_accel_lane\ramps.net.xml"/>
    </input>

    <output>
        <output-file value="C:\Users\dtrou\Desktop\highwayonofframps_accel_lane\highwayonofframps_accel_lane\ramps.net.xml"/>
    </output>

    <processing>
        <geometry.min-radius.fix.railways value="false"/>
        <geometry.max-grade.fix value="false"/>
        <offset.disable-normalization value="true"/>
        <lefthand value="false"/>
    </processing>

    <junctions>
        <no-turnarounds value="true"/>
        <junctions.corner-detail value="5"/>
        <junctions.limit-turn-speed value="5.5"/>
        <rectangular-lane-cut value="false"/>
    </junctions>

    <pedestrian>
        <walkingareas value="false"/>
    </pedestrian>

    <netedit>
        <additional-files value="C:\Users\dtrou\Desktop\highwayonofframps_accel_lane\highwayonofframps_accel_lane\detector_e1.add.xml"/>
    </netedit>

    <report>
        <aggregate-warnings value="5"/>
    </report>

</configuration>
-->

<additional xmlns:xsi="http://www.w3.org/2001/XMLSchema-instance" xsi:noNamespaceSchemaLocation="http://sumo.dlr.de/xsd/additional_file.xsd">
    <e1Detector id="det01" lane="LR01_0" pos="0.5" freq="900.00" file="NUL"/>
	<e1Detector id="det02" lane="LR03_0" pos="0.5" freq="900.00" file="NUL"/>
	<e1Detector id="det03" lane="LR05_0" pos="0.5" freq="900.00" file="NUL"/>
	<e1Detector id="det04" lane="LR07_0" pos="0.5" freq="900.00" file="NUL"/>
	<e1Detector id="det05" lane="LR09_0" pos="0.5" freq="900.00" file="NUL"/>
	<e1Detector id="det06" lane="LR11_0" pos="0.5" freq="900.00" file="NUL"/>
	<e1Detector id="det07" lane="LR13_0" pos="0.5" freq="900.00" file="NUL"/>
	<e1Detector id="det08" lane="LR15_0" pos="0.5" freq="900.00" file="NUL"/>
	<e1Detector id="det09" lane="LR17_0" pos="0.5" freq="900.00" file="NUL"/>
	<e1Detector id="det10" lane="LR19_0" pos="0.5" freq="900.00" file="NUL"/>
	<e1Detector id="det11" lane="LR21_0" pos="0.5" freq="900.00" file="NUL"/>
	<e1Detector id="det12" lane="LR23_0" pos="0.5" freq="900.00" file="NUL"/>
		
</additional>
