<?xml version="1.0" encoding="UTF-8"?>

<!-- generated on 10/12/2022 12:47:46 PM by Eclipse SUMO netedit Version 7b9868cd41
<configuration xmlns:xsi="http://www.w3.org/2001/XMLSchema-instance" xsi:noNamespaceSchemaLocation="http://sumo.dlr.de/xsd/netconvertConfiguration.xsd">

    <input>
        <sumo-net-file value="C:\My%20Data\SUMO\Supplementary\Paris%20Roundabout\Roundabout2.net.xml"/>
    </input>

    <output>
        <output-file value="C:\My%20Data\SUMO\Supplementary\Paris%20Roundabout\Roundabout2.net.xml"/>
    </output>

    <processing>
        <geometry.min-radius.fix.railways value="false"/>
        <geometry.max-grade.fix value="false"/>
        <offset.disable-normalization value="true"/>
        <lefthand value="false"/>
    </processing>

    <junctions>
        <no-turnarounds value="true"/>
        <junctions.corner-detail value="5"/>
        <junctions.limit-turn-speed value="5.5"/>
        <rectangular-lane-cut value="false"/>
    </junctions>

    <pedestrian>
        <walkingareas value="false"/>
    </pedestrian>

    <report>
        <aggregate-warnings value="5"/>
    </report>

</configuration>
-->

<net version="1.6" junctionCornerDetail="5" limitTurnSpeed="5.50" xmlns:xsi="http://www.w3.org/2001/XMLSchema-instance" xsi:noNamespaceSchemaLocation="http://sumo.dlr.de/xsd/net_file.xsd">

    <location netOffset="0.00,0.00" convBoundary="-149.08,-149.08,149.00,149.06" origBoundary="-10000000000.00,-10000000000.00,10000000000.00,10000000000.00" projParameter="!"/>

    <edge id=":B10_1_0" function="internal">
        <lane id=":B10_1_0_0" index="0" speed="11.44" length="24.45" width="38.00" shape="5.12,-86.34 5.46,-76.70 6.50,-69.69 8.24,-65.30 10.66,-63.55"/>
    </edge>
    <edge id=":B10_1_1" function="internal">
        <lane id=":B10_1_1_0" index="0" speed="12.97" length="24.49" width="10.23" shape="-10.83,-63.59 -8.33,-65.33 -6.54,-69.71 -5.47,-76.71 -5.12,-86.34"/>
    </edge>
    <edge id=":B10_1_2" function="internal">
        <lane id=":B10_1_2_0" index="0" speed="13.89" length="21.54" width="38.00" shape="-10.83,-63.59 -6.08,-64.01 -0.08,-64.14 5.92,-63.99 10.66,-63.55"/>
    </edge>
    <edge id=":B11_1_0" function="internal">
        <lane id=":B11_1_0_0" index="0" speed="11.33" length="25.10" width="38.00" shape="48.74,-72.58 43.90,-63.85 41.08,-57.11 40.29,-52.37 41.51,-49.62"/>
    </edge>
    <edge id=":B11_1_1" function="internal">
        <lane id=":B11_1_1_0" index="0" speed="12.70" length="23.68" width="4.40" shape="28.23,-58.24 30.39,-58.79 33.59,-61.92 37.82,-67.65 43.08,-75.98"/>
    </edge>
    <edge id=":B11_1_2" function="internal">
        <lane id=":B11_1_2_0" index="0" speed="13.89" length="15.86" width="38.00" shape="28.23,-58.24 31.67,-56.45 35.10,-54.31 38.41,-51.98 41.51,-49.62"/>
    </edge>
    <edge id=":B12_1_0" function="internal">
        <lane id=":B12_1_0_0" index="0" speed="11.02" length="24.50" width="38.00" shape="76.44,-41.87 68.23,-36.49 62.70,-31.96 59.84,-28.26 59.66,-25.41"/>
    </edge>
    <edge id=":B12_1_1" function="internal">
        <lane id=":B12_1_1_0" index="0" speed="12.84" length="24.41" width="7.33" shape="50.39,-40.52 52.95,-39.50 57.51,-40.43 64.08,-43.31 72.64,-48.14"/>
    </edge>
    <edge id=":B12_1_2" function="internal">
        <lane id=":B12_1_2_0" index="0" speed="13.89" length="17.76" width="38.00" shape="50.39,-40.52 52.84,-37.13 55.37,-33.18 57.74,-29.12 59.66,-25.41"/>
    </edge>
    <edge id=":B1_1_0" function="internal">
        <lane id=":B1_1_0_0" index="0" speed="11.84" length="25.14" width="38.00" shape="85.58,6.96 76.11,7.41 69.17,8.75 64.77,10.99 62.90,14.12"/>
    </edge>
    <edge id=":B1_1_1" function="internal">
        <lane id=":B1_1_1_0" index="0" speed="13.19" length="25.10" width="13.92" shape="62.83,-13.96 64.72,-10.90 69.14,-8.71 76.09,-7.40 85.58,-6.96"/>
    </edge>
    <edge id=":B1_1_2" function="internal">
        <lane id=":B1_1_2_0" index="0" speed="13.89" length="28.12" width="38.00" shape="62.83,-13.96 63.33,-8.19 63.50,0.08 63.36,8.34 62.90,14.12"/>
    </edge>
    <edge id=":B2_1_0" function="internal">
        <lane id=":B2_1_0_0" index="0" speed="11.02" length="24.18" width="38.00" shape="73.41,47.07 64.79,42.32 58.23,39.44 53.74,38.43 51.32,39.29"/>
    </edge>
    <edge id=":B2_1_1" function="internal">
        <lane id=":B2_1_1_0" index="0" speed="12.76" length="24.33" width="6.60" shape="59.58,25.47 59.86,28.17 62.82,31.73 68.45,36.13 76.76,41.39"/>
    </edge>
    <edge id=":B2_1_2" function="internal">
        <lane id=":B2_1_2_0" index="0" speed="13.89" length="16.13" width="38.00" shape="59.58,25.47 57.83,28.98 55.81,32.60 53.61,36.10 51.32,39.29"/>
    </edge>
    <edge id=":B3_1_0" function="internal">
        <lane id=":B3_1_0_0" index="0" speed="11.18" length="24.12" width="38.00" shape="44.25,75.03 38.69,66.92 34.15,61.38 30.63,58.40 28.14,58.00"/>
    </edge>
    <edge id=":B3_1_1" function="internal">
        <lane id=":B3_1_1_0" index="0" speed="12.80" length="24.41" width="7.33" shape="42.38,49.00 41.35,51.62 42.34,56.17 45.36,62.64 50.40,71.05"/>
    </edge>
    <edge id=":B3_1_2" function="internal">
        <lane id=":B3_1_2_0" index="0" speed="13.89" length="16.88" width="38.00" shape="42.38,49.00 39.16,51.45 35.51,53.92 31.75,56.18 28.14,58.00"/>
    </edge>
    <edge id=":B4_1_0" function="internal">
        <lane id=":B4_1_0_0" index="0" speed="11.61" length="25.07" width="38.00" shape="-5.86,86.29 -6.27,76.62 -7.49,69.58 -9.53,65.16 -12.38,63.36"/>
    </edge>
    <edge id=":B4_1_1" function="internal">
        <lane id=":B4_1_1_0" index="0" speed="13.02" length="25.14" width="11.72" shape="12.71,63.49 9.72,65.25 7.57,69.64 6.29,76.65 5.86,86.29"/>
    </edge>
    <edge id=":B4_1_2" function="internal">
        <lane id=":B4_1_2_0" index="0" speed="13.89" length="25.13" width="38.00" shape="12.71,63.49 7.40,63.85 0.16,63.95 -7.07,63.78 -12.38,63.36"/>
    </edge>
    <edge id=":B5_1_0" function="internal">
        <lane id=":B5_1_0_0" index="0" speed="12.73" length="23.69" width="4.40" shape="-28.18,58.23 -30.37,58.78 -33.58,61.91 -37.81,67.64 -43.07,75.95"/>
    </edge>
    <edge id=":B5_1_1" function="internal">
        <lane id=":B5_1_1_0" index="0" speed="13.89" length="15.87" width="38.00" shape="-28.18,58.23 -31.64,56.46 -35.07,54.32 -38.39,51.99 -41.49,49.64"/>
    </edge>
    <edge id=":B5_1_2" function="internal">
        <lane id=":B5_1_2_0" index="0" speed="11.32" length="25.06" width="38.00" shape="-48.72,72.56 -43.89,63.83 -41.07,57.11 -40.27,52.37 -41.49,49.64"/>
    </edge>
    <edge id=":B6_1_0" function="internal">
        <lane id=":B6_1_0_0" index="0" speed="12.85" length="24.21" width="7.33" shape="-51.29,39.30 -53.76,38.34 -58.29,39.25 -64.87,42.02 -73.49,46.66"/>
    </edge>
    <edge id=":B6_1_1" function="internal">
        <lane id=":B6_1_1_0" index="0" speed="13.89" length="17.14" width="38.00" shape="-51.29,39.30 -53.63,35.96 -55.98,32.14 -58.14,28.20 -59.89,24.52"/>
    </edge>
    <edge id=":B6_1_2" function="internal">
        <lane id=":B6_1_2_0" index="0" speed="11.04" length="24.30" width="38.00" shape="-77.16,40.31 -68.85,35.15 -63.20,30.80 -60.21,27.25 -59.89,24.52"/>
    </edge>
    <edge id=":B7_1_0" function="internal">
        <lane id=":B7_1_0_0" index="0" speed="13.04" length="24.86" width="11.72" shape="-63.37,12.32 -65.15,9.49 -69.54,7.47 -76.53,6.26 -86.12,5.86"/>
    </edge>
    <edge id=":B7_1_1" function="internal">
        <lane id=":B7_1_1_0" index="0" speed="13.89" length="24.34" width="38.00" shape="-63.37,12.32 -63.78,7.13 -63.90,0.17 -63.73,-6.80 -63.26,-11.98"/>
    </edge>
    <edge id=":B7_1_2" function="internal">
        <lane id=":B7_1_2_0" index="0" speed="11.63" length="24.78" width="38.00" shape="-86.12,-5.86 -76.50,-6.24 -69.48,-7.39 -65.07,-9.30 -63.26,-11.98"/>
    </edge>
    <edge id=":B8_1_0" function="internal">
        <lane id=":B8_1_0_0" index="0" speed="10.98" length="24.16" width="38.00" shape="-72.53,-48.31 -64.01,-43.43 -57.52,-40.47 -53.04,-39.43 -50.59,-40.31"/>
    </edge>
    <edge id=":B8_1_1" function="internal">
        <lane id=":B8_1_1_0" index="0" speed="12.78" length="24.20" width="6.60" shape="-58.99,-26.66 -59.28,-29.29 -62.21,-32.84 -67.77,-37.31 -75.98,-42.69"/>
    </edge>
    <edge id=":B8_1_2" function="internal">
        <lane id=":B8_1_2_0" index="0" speed="13.89" length="16.06" width="38.00" shape="-58.99,-26.66 -57.21,-30.15 -55.15,-33.71 -52.90,-37.16 -50.59,-40.31"/>
    </edge>
    <edge id=":B9_1_0" function="internal">
        <lane id=":B9_1_0_0" index="0" speed="11.10" length="24.21" width="38.00" shape="-42.98,-75.71 -37.54,-67.56 -33.04,-62.02 -29.47,-59.09 -26.83,-58.77"/>
    </edge>
    <edge id=":B9_1_1" function="internal">
        <lane id=":B9_1_1_0" index="0" speed="12.81" length="24.31" width="7.33" shape="-41.39,-49.76 -40.38,-52.33 -41.35,-56.86 -44.29,-63.36 -49.20,-71.83"/>
    </edge>
    <edge id=":B9_1_2" function="internal">
        <lane id=":B9_1_2_0" index="0" speed="13.89" length="17.15" width="38.00" shape="-41.39,-49.76 -38.10,-52.19 -34.35,-54.66 -30.47,-56.93 -26.83,-58.77"/>
    </edge>
    <edge id=":N11_0" function="internal">
        <lane id=":N11_0_0" index="0" speed="13.89" length="8.16" width="38.00" shape="-13.29,63.22 -15.69,62.91 -17.35,62.68 -18.95,62.25 -21.18,61.35"/>
    </edge>
    <edge id=":N14_0" function="internal">
        <lane id=":N14_0_0" index="0" speed="13.89" length="7.83" width="38.00" shape="-44.22,47.51 -46.00,46.03 -47.09,44.87 -48.05,43.59 -49.43,41.71"/>
    </edge>
    <edge id=":N17_0" function="internal">
        <lane id=":N17_0_0" index="0" speed="13.89" length="7.98" width="38.00" shape="-60.22,23.76 -61.21,21.60 -61.87,20.11 -62.36,18.57 -62.78,16.25"/>
    </edge>
    <edge id=":N2_0" function="internal">
        <lane id=":N2_0_0" index="0" speed="13.89" length="5.07" width="38.00" shape="62.23,18.12 61.97,19.60 61.73,20.60 61.36,21.57 60.74,22.94"/>
    </edge>
    <edge id=":N20_0" function="internal">
        <lane id=":N20_0_0" index="0" speed="13.89" length="8.23" width="38.00" shape="-62.72,-15.15 -62.36,-17.57 -62.10,-19.24 -61.64,-20.84 -60.68,-23.07"/>
    </edge>
    <edge id=":N23_0" function="internal">
        <lane id=":N23_0_0" index="0" speed="13.89" length="4.42" width="38.00" shape="-47.46,-44.28 -46.64,-45.31 -46.04,-45.98 -45.38,-46.58 -44.35,-47.40"/>
    </edge>
    <edge id=":N26_0" function="internal">
        <lane id=":N26_0_0" index="0" speed="13.89" length="5.32" width="38.00" shape="-21.33,-61.28 -19.89,-61.92 -18.87,-62.30 -17.82,-62.54 -16.26,-62.78"/>
    </edge>
    <edge id=":N29_0" function="internal">
        <lane id=":N29_0_0" index="0" speed="13.89" length="5.15" width="38.00" shape="17.18,-62.52 18.69,-62.27 19.71,-62.03 20.69,-61.66 22.09,-61.04"/>
    </edge>
    <edge id=":N32_0" function="internal">
        <lane id=":N32_0_0" index="0" speed="13.89" length="4.67" width="38.00" shape="44.22,-47.51 45.31,-46.65 46.01,-46.01 46.65,-45.31 47.51,-44.22"/>
    </edge>
    <edge id=":N35_0" function="internal">
        <lane id=":N35_0_0" index="0" speed="13.89" length="5.16" width="38.00" shape="60.38,-23.92 61.03,-22.53 61.41,-21.55 61.67,-20.53 61.94,-19.03"/>
    </edge>
    <edge id=":N5_0" function="internal">
        <lane id=":N5_0_0" index="0" speed="13.89" length="7.43" width="38.00" shape="49.39,41.78 48.08,43.55 47.17,44.77 46.14,45.87 44.48,47.30"/>
    </edge>
    <edge id=":N8_0" function="internal">
        <lane id=":N8_0_0" index="0" speed="13.89" length="5.48" width="38.00" shape="19.64,61.79 18.15,62.44 17.09,62.81 16.00,63.04 14.39,63.27"/>
    </edge>

    <edge id="EN1" from="B1_2" to="B1_1" priority="-1">
        <lane id="EN1_0" index="0" speed="13.89" length="63.42" width="13.92" shape="149.00,6.96 85.58,6.96"/>
    </edge>
    <edge id="EN10" from="B10_2" to="B10_1" priority="-1">
        <lane id="EN10_0" index="0" speed="13.89" length="62.74" width="10.23" shape="5.12,-149.08 5.12,-86.34"/>
    </edge>
    <edge id="EN11" from="B11_2" to="B11_1" priority="-1">
        <lane id="EN11_0" index="0" speed="13.89" length="61.69" width="8.79" shape="80.51,-125.46 48.74,-72.58"/>
    </edge>
    <edge id="EN12" from="B12_2" to="B12_1" priority="-1">
        <lane id="EN12_0" index="0" speed="13.89" length="62.01" width="7.33" shape="129.45,-74.05 76.44,-41.87"/>
    </edge>
    <edge id="EN2" from="B2_2" to="B2_1" priority="-1">
        <lane id="EN2_0" index="0" speed="13.89" length="61.85" width="6.60" shape="126.71,78.46 73.41,47.07"/>
    </edge>
    <edge id="EN3" from="B3_2" to="B3_1" priority="-1">
        <lane id="EN3_0" index="0" speed="13.89" length="62.06" width="7.33" shape="77.94,127.14 44.25,75.03"/>
    </edge>
    <edge id="EN4" from="B4_2" to="B4_1" priority="-1">
        <lane id="EN4_0" index="0" speed="13.89" length="62.77" width="11.72" shape="-5.86,149.06 -5.86,86.29"/>
    </edge>
    <edge id="EN5" from="B5_2" to="B5_1" priority="-1">
        <lane id="EN5_0" index="0" speed="13.89" length="61.72" width="8.79" shape="-80.51,125.46 -48.72,72.56"/>
    </edge>
    <edge id="EN6" from="B6_2" to="B6_1" priority="-1">
        <lane id="EN6_0" index="0" speed="13.89" length="62.02" width="7.33" shape="-130.87,71.33 -77.16,40.31"/>
    </edge>
    <edge id="EN7" from="B7_2" to="B7_1" priority="-1">
        <lane id="EN7_0" index="0" speed="13.89" length="62.96" width="11.72" shape="-149.08,-5.86 -86.12,-5.86"/>
    </edge>
    <edge id="EN8" from="B8_2" to="B8_1" priority="-1">
        <lane id="EN8_0" index="0" speed="13.89" length="61.91" width="6.60" shape="-125.32,-80.66 -72.53,-48.31"/>
    </edge>
    <edge id="EN9" from="B9_2" to="B9_1" priority="-1">
        <lane id="EN9_0" index="0" speed="13.89" length="62.10" width="7.33" shape="-75.88,-128.38 -42.98,-75.71"/>
    </edge>
    <edge id="EX1" from="B1_1" to="B1_2" priority="-1">
        <lane id="EX1_0" index="0" speed="13.89" length="63.42" width="13.92" shape="85.58,-6.96 149.00,-6.96"/>
    </edge>
    <edge id="EX10" from="B10_1" to="B10_2" priority="-1">
        <lane id="EX10_0" index="0" speed="13.89" length="62.74" width="10.23" shape="-5.12,-86.34 -5.12,-149.08"/>
    </edge>
    <edge id="EX11" from="B11_1" to="B11_2" priority="-1">
        <lane id="EX11_0" index="0" speed="13.89" length="61.69" width="4.40" shape="43.08,-75.98 74.85,-128.85"/>
    </edge>
    <edge id="EX12" from="B12_1" to="B12_2" priority="-1">
        <lane id="EX12_0" index="0" speed="13.89" length="62.01" width="7.33" shape="72.64,-48.14 125.65,-80.31"/>
    </edge>
    <edge id="EX2" from="B2_1" to="B2_2" priority="-1">
        <lane id="EX2_0" index="0" speed="13.89" length="61.85" width="6.60" shape="76.76,41.39 130.05,72.78"/>
    </edge>
    <edge id="EX3" from="B3_1" to="B3_2" priority="-1">
        <lane id="EX3_0" index="0" speed="13.89" length="62.06" width="7.33" shape="50.40,71.05 84.10,123.16"/>
    </edge>
    <edge id="EX4" from="B4_1" to="B4_2" priority="-1">
        <lane id="EX4_0" index="0" speed="13.89" length="62.77" width="11.72" shape="5.86,86.29 5.86,149.06"/>
    </edge>
    <edge id="EX5" from="B5_1" to="B5_2" priority="-1">
        <lane id="EX5_0" index="0" speed="13.89" length="61.72" width="4.40" shape="-43.07,75.95 -74.85,128.85"/>
    </edge>
    <edge id="EX6" from="B6_1" to="B6_2" priority="-1">
        <lane id="EX6_0" index="0" speed="13.89" length="62.02" width="7.33" shape="-73.49,46.66 -127.21,77.67"/>
    </edge>
    <edge id="EX7" from="B7_1" to="B7_2" priority="-1">
        <lane id="EX7_0" index="0" speed="13.89" length="62.96" width="11.72" shape="-86.12,5.86 -149.08,5.86"/>
    </edge>
    <edge id="EX8" from="B8_1" to="B8_2" priority="-1">
        <lane id="EX8_0" index="0" speed="13.89" length="61.91" width="6.60" shape="-75.98,-42.69 -128.76,-75.04"/>
    </edge>
    <edge id="EX9" from="B9_1" to="B9_2" priority="-1">
        <lane id="EX9_0" index="0" speed="13.89" length="62.10" width="7.33" shape="-49.20,-71.83 -82.10,-124.50"/>
    </edge>
    <edge id="LR01" from="B1_1" to="N2" priority="-1">
        <lane id="LR01_0" index="0" speed="13.89" length="4.06" width="38.00" shape="62.90,14.12 62.23,18.12"/>
    </edge>
    <edge id="LR02" from="N2" to="B2_1" priority="-1">
        <lane id="LR02_0" index="0" speed="13.89" length="2.78" width="38.00" shape="60.74,22.94 59.58,25.47"/>
    </edge>
    <edge id="LR03" from="B2_1" to="N5" priority="-1">
        <lane id="LR03_0" index="0" speed="13.89" length="3.15" width="38.00" shape="51.32,39.29 49.39,41.78"/>
    </edge>
    <edge id="LR04" from="N5" to="B3_1" priority="-1">
        <lane id="LR04_0" index="0" speed="13.89" length="2.70" width="38.00" shape="44.48,47.30 42.38,49.00"/>
    </edge>
    <edge id="LR05" from="B3_1" to="N8" priority="-1">
        <lane id="LR05_0" index="0" speed="13.89" length="9.31" width="38.00" shape="28.14,58.00 19.64,61.79"/>
    </edge>
    <edge id="LR06" from="N8" to="B4_1" priority="-1">
        <lane id="LR06_0" index="0" speed="13.89" length="1.69" width="38.00" shape="14.39,63.27 12.71,63.49"/>
    </edge>
    <edge id="LR07" from="B4_1" to="N11" priority="-1">
        <lane id="LR07_0" index="0" speed="13.89" length="0.92" width="38.00" shape="-12.38,63.36 -13.29,63.22"/>
    </edge>
    <edge id="LR08" from="N11" to="B5_1" priority="-1">
        <lane id="LR08_0" index="0" speed="13.89" length="7.67" width="38.00" shape="-21.18,61.35 -28.18,58.23"/>
    </edge>
    <edge id="LR09" from="B5_1" to="N14" priority="-1">
        <lane id="LR09_0" index="0" speed="13.89" length="3.47" width="38.00" shape="-41.49,49.64 -44.22,47.51"/>
    </edge>
    <edge id="LR10" from="N14" to="B6_1" priority="-1">
        <lane id="LR10_0" index="0" speed="13.89" length="3.05" width="38.00" shape="-49.43,41.71 -51.29,39.30"/>
    </edge>
    <edge id="LR11" from="B6_1" to="N17" priority="-1">
        <lane id="LR11_0" index="0" speed="13.89" length="0.83" width="38.00" shape="-59.89,24.52 -60.22,23.76"/>
    </edge>
    <edge id="LR12" from="N17" to="B7_1" priority="-1">
        <lane id="LR12_0" index="0" speed="13.89" length="3.98" width="38.00" shape="-62.78,16.25 -63.37,12.32"/>
    </edge>
    <edge id="LR13" from="B7_1" to="N20" priority="-1">
        <lane id="LR13_0" index="0" speed="13.89" length="3.22" width="38.00" shape="-63.26,-11.98 -62.72,-15.15"/>
    </edge>
    <edge id="LR14" from="N20" to="B8_1" priority="-1">
        <lane id="LR14_0" index="0" speed="13.89" length="3.96" width="38.00" shape="-60.68,-23.07 -58.99,-26.66"/>
    </edge>
    <edge id="LR15" from="B8_1" to="N23" priority="-1">
        <lane id="LR15_0" index="0" speed="13.89" length="5.05" width="38.00" shape="-50.59,-40.31 -47.46,-44.28"/>
    </edge>
    <edge id="LR16" from="N23" to="B9_1" priority="-1">
        <lane id="LR16_0" index="0" speed="13.89" length="3.79" width="38.00" shape="-44.35,-47.40 -41.39,-49.76"/>
    </edge>
    <edge id="LR17" from="B9_1" to="N26" priority="-1">
        <lane id="LR17_0" index="0" speed="13.89" length="6.05" width="38.00" shape="-26.83,-58.77 -21.33,-61.28"/>
    </edge>
    <edge id="LR18" from="N26" to="B10_1" priority="-1">
        <lane id="LR18_0" index="0" speed="13.89" length="5.49" width="38.00" shape="-16.26,-62.78 -10.83,-63.59"/>
    </edge>
    <edge id="LR19" from="B10_1" to="N29" priority="-1">
        <lane id="LR19_0" index="0" speed="13.89" length="6.60" width="38.00" shape="10.66,-63.55 17.18,-62.52"/>
    </edge>
    <edge id="LR20" from="N29" to="B11_1" priority="-1" length="38.00">
        <lane id="LR20_0" index="0" speed="13.89" length="38.00" width="38.00" shape="22.09,-61.04 28.23,-58.24"/>
    </edge>
    <edge id="LR21" from="B11_1" to="N32" priority="-1">
        <lane id="LR21_0" index="0" speed="13.89" length="3.44" width="38.00" shape="41.51,-49.62 44.22,-47.51"/>
    </edge>
    <edge id="LR22" from="N32" to="B12_1" priority="-1">
        <lane id="LR22_0" index="0" speed="13.89" length="4.69" width="38.00" shape="47.51,-44.22 50.39,-40.52"/>
    </edge>
    <edge id="LR23" from="B12_1" to="N35" priority="-1">
        <lane id="LR23_0" index="0" speed="13.89" length="1.65" width="38.00" shape="59.66,-25.41 60.38,-23.92"/>
    </edge>
    <edge id="LR24" from="N35" to="B1_1" priority="-1">
        <lane id="LR24_0" index="0" speed="13.89" length="5.14" width="38.00" shape="61.94,-19.03 62.83,-13.96"/>
    </edge>

    <junction id="B10_1" type="priority" x="0.00" y="-46.00" incLanes="EN10_0 LR18_0" intLanes=":B10_1_0_0 :B10_1_1_0 :B10_1_2_0" shape="7.69,-44.78 13.63,-82.31 11.74,-83.00 11.08,-83.59 10.61,-84.34 10.32,-85.26 10.23,-86.34 -10.23,-86.34 -10.61,-84.37 -11.08,-83.63 -11.75,-83.05 -12.60,-82.64 -13.64,-82.38 -8.02,-44.80 -4.70,-45.29 -2.22,-45.59 -0.16,-45.69 1.90,-45.59 4.37,-45.29">
        <request index="0" response="100" foes="100" cont="0"/>
        <request index="1" response="000" foes="000" cont="0"/>
        <request index="2" response="000" foes="001" cont="0"/>
    </junction>
    <junction id="B10_2" type="dead_end" x="0.00" y="-149.08" incLanes="EX10_0" intLanes="" shape="0.00,-149.08 -10.23,-149.08 0.00,-149.08"/>
    <junction id="B11_1" type="priority" x="23.69" y="-39.43" incLanes="EN11_0 LR20_0" intLanes=":B11_1_0_0 :B11_1_1_0 :B11_1_2_0" shape="29.82,-34.64 53.20,-64.60 51.87,-66.21 51.62,-67.13 51.64,-68.12 51.94,-69.18 52.50,-70.32 41.20,-77.11 39.81,-75.57 39.01,-75.18 38.12,-75.05 37.15,-75.16 36.11,-75.53 20.35,-40.95 22.54,-39.91 24.11,-39.05 25.35,-38.23 26.52,-37.31 27.92,-36.16">
        <request index="0" response="100" foes="100" cont="0"/>
        <request index="1" response="000" foes="000" cont="0"/>
        <request index="2" response="000" foes="001" cont="0"/>
    </junction>
    <junction id="B11_2" type="dead_end" x="76.74" y="-127.72" incLanes="EX11_0" intLanes="" shape="76.74,-127.72 72.97,-129.99 76.74,-127.72"/>
    <junction id="B12_1" type="priority" x="39.43" y="-23.69" incLanes="EN12_0 LR22_0" intLanes=":B12_1_0_0 :B12_1_1_0 :B12_1_2_0" shape="42.52,-17.22 76.81,-33.59 76.29,-35.62 76.41,-36.51 76.80,-37.33 77.44,-38.07 78.34,-38.74 70.74,-51.27 68.75,-50.53 67.83,-50.55 66.96,-50.84 66.14,-51.40 65.37,-52.21 35.42,-28.83 37.19,-26.54 38.47,-24.80 39.44,-23.32 40.30,-21.77 41.26,-19.84">
        <request index="0" response="100" foes="100" cont="0"/>
        <request index="1" response="000" foes="000" cont="0"/>
        <request index="2" response="000" foes="001" cont="0"/>
    </junction>
    <junction id="B12_2" type="dead_end" x="127.55" y="-77.18" incLanes="EX12_0" intLanes="" shape="127.55,-77.18 123.75,-83.45 127.55,-77.18"/>
    <junction id="B1_1" type="priority" x="46.00" y="0.00" incLanes="EN1_0 LR24_0" intLanes=":B1_1_0_0 :B1_1_1_0 :B1_1_2_0" shape="85.58,13.92 85.58,-13.92 83.60,-14.29 82.85,-14.75 82.26,-15.40 81.82,-16.24 81.55,-17.25 44.12,-10.66 44.90,-6.10 45.36,-2.69 45.52,0.15 45.36,2.99 44.91,6.41 44.16,10.98 81.64,17.26 82.32,15.40 82.90,14.75 83.64,14.29 84.53,14.01">
        <request index="0" response="100" foes="100" cont="0"/>
        <request index="1" response="000" foes="000" cont="0"/>
        <request index="2" response="000" foes="001" cont="0"/>
    </junction>
    <junction id="B1_2" type="dead_end" x="149.00" y="0.00" incLanes="EX1_0" intLanes="" shape="149.00,0.00 149.00,-13.92 149.00,0.00"/>
    <junction id="B2_1" type="priority" x="39.63" y="23.35" incLanes="EN2_0 LR02_0" intLanes=":B2_1_0_0 :B2_1_1_0 :B2_1_2_0" shape="71.73,49.92 78.43,38.54 76.87,37.16 76.47,36.35 76.34,35.45 76.45,34.48 76.83,33.42 42.32,17.51 41.27,19.80 40.46,21.49 39.74,22.85 38.91,24.15 37.82,25.66 36.29,27.67 66.35,50.91 67.93,49.53 68.80,49.23 69.73,49.20 70.70,49.43">
        <request index="0" response="100" foes="100" cont="0"/>
        <request index="1" response="000" foes="000" cont="0"/>
        <request index="2" response="000" foes="001" cont="0"/>
    </junction>
    <junction id="B2_2" type="dead_end" x="128.38" y="75.62" incLanes="EX2_0" intLanes="" shape="128.38,75.62 131.73,69.93 128.38,75.62"/>
    <junction id="B3_1" type="priority" x="25.05" y="38.58" incLanes="EN3_0 LR04_0" intLanes=":B3_1_0_0 :B3_1_1_0 :B3_1_2_0" shape="41.17,77.02 53.48,69.06 52.71,67.13 52.72,66.23 52.99,65.37 53.53,64.55 54.33,63.77 30.43,34.23 28.46,35.84 26.98,37.02 25.72,37.93 24.40,38.74 22.72,39.59 20.41,40.64 35.87,75.36 37.92,74.89 38.84,75.04 39.69,75.45 40.46,76.10">
        <request index="0" response="100" foes="100" cont="0"/>
        <request index="1" response="000" foes="000" cont="0"/>
        <request index="2" response="000" foes="001" cont="0"/>
    </junction>
    <junction id="B3_2" type="dead_end" x="81.02" y="125.15" incLanes="EX3_0" intLanes="" shape="81.02,125.15 87.18,121.17 81.02,125.15"/>
    <junction id="B4_1" type="priority" x="0.00" y="46.00" incLanes="EN4_0 LR06_0" intLanes=":B4_1_0_0 :B4_1_1_0 :B4_1_2_0" shape="-11.72,86.29 11.72,86.29 12.11,84.29 12.59,83.55 13.27,82.97 14.13,82.56 15.20,82.33 10.23,44.65 6.04,45.20 2.91,45.53 0.32,45.64 -2.27,45.53 -5.39,45.17 -9.57,44.57 -15.19,82.15 -13.26,82.84 -12.59,83.45 -12.11,84.22 -11.82,85.17">
        <request index="0" response="100" foes="100" cont="0"/>
        <request index="1" response="000" foes="000" cont="0"/>
        <request index="2" response="000" foes="001" cont="0"/>
    </junction>
    <junction id="B4_2" type="dead_end" x="0.00" y="149.06" incLanes="EX4_0" intLanes="" shape="0.00,149.06 11.72,149.06 0.00,149.06"/>
    <junction id="B5_1" type="priority" x="-23.69" y="39.43" incLanes="LR08_0 EN5_0" intLanes=":B5_1_0_0 :B5_1_1_0 :B5_1_2_0" shape="-35.91,75.58 -20.46,40.87 -22.62,39.86 -24.17,39.01 -25.39,38.20 -26.55,37.30 -27.93,36.16 -29.80,34.66 -53.18,64.62 -51.86,66.22 -51.61,67.13 -51.63,68.11 -51.92,69.16 -52.49,70.29 -41.18,77.08 -39.79,75.57 -38.95,75.19 -38.03,75.07 -37.02,75.20">
        <request index="0" response="000" foes="000" cont="0"/>
        <request index="1" response="000" foes="100" cont="0"/>
        <request index="2" response="010" foes="010" cont="0"/>
    </junction>
    <junction id="B5_2" type="dead_end" x="-76.74" y="127.72" incLanes="EX5_0" intLanes="" shape="-76.74,127.72 -72.97,129.99 -76.74,127.72"/>
    <junction id="B6_1" type="priority" x="-39.84" y="23.00" incLanes="LR10_0 EN6_0" intLanes=":B6_1_0_0 :B6_1_1_0 :B6_1_2_0" shape="-66.36,50.86 -36.21,27.73 -37.82,25.61 -38.97,24.01 -39.83,22.63 -40.58,21.19 -41.40,19.39 -42.47,16.95 -77.32,32.08 -76.88,34.10 -77.03,34.98 -77.43,35.79 -78.09,36.50 -78.99,37.14 -71.66,49.84 -69.68,49.15 -68.77,49.19 -67.92,49.49 -67.11,50.05">
        <request index="0" response="000" foes="000" cont="0"/>
        <request index="1" response="000" foes="100" cont="0"/>
        <request index="2" response="010" foes="010" cont="0"/>
    </junction>
    <junction id="B6_2" type="dead_end" x="-129.04" y="74.50" incLanes="EX6_0" intLanes="" shape="-129.04,74.50 -125.37,80.85 -129.04,74.50"/>
    <junction id="B7_1" type="priority" x="-46.00" y="0.00" incLanes="LR12_0 EN7_0" intLanes=":B7_1_0_0 :B7_1_1_0 :B7_1_2_0" shape="-82.16,15.13 -44.58,9.51 -45.15,5.63 -45.50,2.73 -45.63,0.33 -45.51,-2.08 -45.14,-4.97 -44.52,-8.84 -82.00,-15.12 -82.71,-13.23 -83.31,-12.57 -84.08,-12.10 -85.02,-11.81 -86.12,-11.72 -86.12,11.72 -84.14,12.10 -83.40,12.57 -82.83,13.23 -82.41,14.09">
        <request index="0" response="000" foes="000" cont="0"/>
        <request index="1" response="000" foes="100" cont="0"/>
        <request index="2" response="010" foes="010" cont="0"/>
    </junction>
    <junction id="B7_2" type="dead_end" x="-149.08" y="0.00" incLanes="EX7_0" intLanes="" shape="-149.08,0.00 -149.08,11.72 -149.08,0.00"/>
    <junction id="B8_1" type="priority" x="-39.22" y="-24.03" incLanes="EN8_0 LR14_0" intLanes=":B8_1_0_0 :B8_1_1_0 :B8_1_2_0" shape="-35.65,-28.56 -65.52,-52.06 -67.09,-50.71 -67.95,-50.42 -68.85,-50.39 -69.80,-50.63 -70.80,-51.13 -77.70,-39.87 -76.17,-38.47 -75.79,-37.66 -75.66,-36.77 -75.79,-35.80 -76.17,-34.76 -41.80,-18.56 -40.73,-20.82 -39.90,-22.48 -39.15,-23.82 -38.31,-25.10 -37.20,-26.59">
        <request index="0" response="100" foes="100" cont="0"/>
        <request index="1" response="000" foes="000" cont="0"/>
        <request index="2" response="000" foes="001" cont="0"/>
    </junction>
    <junction id="B8_2" type="dead_end" x="-127.04" y="-77.85" incLanes="EX8_0" intLanes="" shape="-127.04,-77.85 -130.49,-72.22 -127.04,-77.85"/>
    <junction id="B9_1" type="priority" x="-24.38" y="-39.01" incLanes="EN9_0 LR16_0" intLanes=":B9_1_0_0 :B9_1_1_0 :B9_1_2_0" shape="-18.95,-41.48 -34.71,-76.06 -36.73,-75.58 -37.62,-75.72 -38.45,-76.11 -39.20,-76.75 -39.87,-77.65 -52.31,-69.88 -51.57,-67.96 -51.59,-67.06 -51.87,-66.21 -52.41,-65.40 -53.21,-64.63 -29.56,-34.89 -27.47,-36.55 -25.90,-37.75 -24.55,-38.67 -23.14,-39.49 -21.37,-40.37">
        <request index="0" response="100" foes="100" cont="0"/>
        <request index="1" response="000" foes="000" cont="0"/>
        <request index="2" response="000" foes="001" cont="0"/>
    </junction>
    <junction id="B9_2" type="dead_end" x="-78.99" y="-126.44" incLanes="EX9_0" intLanes="" shape="-78.99,-126.44 -85.21,-122.56 -78.99,-126.44"/>
    <junction id="N11" type="priority" x="-13.45" y="43.99" incLanes="LR07_0" intLanes=":N11_0_0" shape="-16.10,82.02 -10.48,44.43 -11.61,44.36 -12.01,44.36 -12.40,44.33 -12.86,44.22 -13.45,43.99 -28.91,78.70 -26.32,79.82 -24.36,80.54 -22.69,81.00 -20.99,81.32">
        <request index="0" response="0" foes="0" cont="0"/>
    </junction>
    <junction id="N14" type="priority" x="-32.53" y="32.53" incLanes="LR09_0" intLanes=":N14_0_0" shape="-55.91,62.49 -32.53,32.53 -33.33,31.77 -33.54,31.44 -33.74,31.09 -33.99,30.68 -34.36,30.15 -64.51,53.28 -61.68,57.02 -60.63,58.30 -59.49,59.49 -58.01,60.80">
        <request index="0" response="0" foes="0" cont="0"/>
    </junction>