<?xml version="1.0" encoding="UTF-8"?>

<!-- generated on Τετ 25 Νοε 2020 11:43:26 πμ EET by Eclipse SUMO netedit Version 1.7.0
<configuration xmlns:xsi="http://www.w3.org/2001/XMLSchema-instance" xsi:noNamespaceSchemaLocation="http://sumo.dlr.de/xsd/netconvertConfiguration.xsd">

    <input>
        <sumo-net-file value="/home/dtrou/github/sumo/bin/highwayonofframps/ramps.net.xml"/>
    </input>

    <output>
        <output-file value="/home/dtrou/github/sumo/bin/highwayonofframps/ramps.net.xml"/>
    </output>

    <processing>
        <geometry.min-radius.fix.railways value="false"/>
        <geometry.max-grade.fix value="false"/>
        <offset.disable-normalization value="true"/>
        <lefthand value="false"/>
    </processing>

    <junctions>
        <no-turnarounds value="true"/>
        <junctions.corner-detail value="5"/>
        <junctions.limit-turn-speed value="5.5"/>
        <rectangular-lane-cut value="false"/>
    </junctions>

    <pedestrian>
        <walkingareas value="false"/>
    </pedestrian>

    <report>
        <aggregate-warnings value="5"/>
    </report>

</configuration>
-->

<net version="1.6" junctionCornerDetail="5" limitTurnSpeed="5.50" xmlns:xsi="http://www.w3.org/2001/XMLSchema-instance" xsi:noNamespaceSchemaLocation="http://sumo.dlr.de/xsd/net_file.xsd">

    <location netOffset="0.00,0.00" convBoundary="-98.28,10.36,705.54,70.47" origBoundary="-10000000000.00,-10000000000.00,10000000000.00,10000000000.00" projParameter="!"/>

    <edge id=":gneJ2_0" function="internal">
        <lane id=":gneJ2_0_0" index="0" speed="31.95" length="0.30" width="10.00" shape="-30.38,65.47 -30.08,65.47"/>
    </edge>
    <edge id=":gneJ3_0" function="internal">
        <lane id=":gneJ3_0_0" index="0" speed="38.42" length="30.18" width="10.00" shape="49.30,55.27 54.99,57.64 63.34,61.06 71.76,64.13 77.64,65.47"/>
    </edge>
    <edge id=":gneJ3_1" function="internal">
        <lane id=":gneJ3_1_0" index="0" speed="50.00" length="30.28" width="10.00" shape="47.36,65.47 77.64,65.47"/>
    </edge>
    <edge id=":gneJ4_0" function="internal">
        <lane id=":gneJ4_0_0" index="0" speed="31.95" length="0.42" width="10.00" shape="-27.03,25.21 -26.64,25.35"/>
    </edge>
    <edge id=":gneJ5_0" function="internal">
        <lane id=":gneJ5_0_0" index="0" speed="50.00" length="2.78" width="10.00" shape="500.73,65.47 501.55,65.47 502.12,65.45 502.68,65.42 503.50,65.34"/>
    </edge>
    <edge id=":gneJ5_1" function="internal">
        <lane id=":gneJ5_1_0" index="0" speed="50.00" length="2.79" width="10.00" shape="500.73,65.47 503.51,65.47"/>
    </edge>

    <edge id="entry" from="gneJ8" to="gneJ2" priority="-1">
        <lane id="entry_0" index="0" speed="13.89" length="67.88" width="10.00" shape="-98.26,65.22 -30.38,65.47"/>
    </edge>
    <edge id="entry_2" from="gneJ2" to="gneJ3" priority="-1">
        <lane id="entry_2_0" index="0" speed="50.00" length="77.44" width="10.00" shape="-30.08,65.47 47.36,65.47"/>
    </edge>
    <edge id="exit" from="gneJ5" to="gneJ6" priority="-1">
        <lane id="exit_0" index="0" speed="50.00" length="202.02" width="10.00" shape="503.51,65.47 705.54,65.36"/>
    </edge>
    <edge id="long_edge" from="gneJ3" to="gneJ5" priority="-1">
        <lane id="long_edge_0" index="0" speed="50.00" length="423.09" width="10.00" shape="77.64,65.47 500.73,65.47"/>
    </edge>
    <edge id="off_ramp" from="gneJ5" to="gneJ7" priority="-1">
        <lane id="off_ramp_0" index="0" speed="50.00" length="197.31" width="10.00" shape="503.50,65.34 699.97,47.12"/>
    </edge>
    <edge id="on_ramp" from="gneJ9" to="gneJ4" priority="-1">
        <lane id="on_ramp_0" index="0" speed="13.89" length="68.42" width="10.00" shape="-92.57,5.57 -27.03,25.21"/>
    </edge>
    <edge id="on_ramp_2" from="gneJ4" to="gneJ3" priority="-1">
        <lane id="on_ramp_2_0" index="0" speed="50.00" length="81.62" width="10.00" shape="-26.64,25.35 49.30,55.27"/>
    </edge>

    <junction id="gneJ2" type="priority" x="-30.24" y="70.47" incLanes="entry_0" intLanes=":gneJ2_0_0" shape="-30.08,70.47 -30.08,60.47 -30.36,60.47 -30.40,70.47">
        <request index="0" response="0" foes="0" cont="0"/>
    </junction>
    <junction id="gneJ3" type="priority" x="74.24" y="70.47" incLanes="on_ramp_2_0 entry_2_0" intLanes=":gneJ3_0_0 :gneJ3_1_0" shape="77.64,70.47 77.64,60.47 71.68,60.10 67.41,59.07 64.02,57.49 60.71,55.47 56.68,53.15 51.13,50.62 47.47,59.92 47.36,60.47 47.36,70.47">
        <request index="0" response="00" foes="10" cont="0"/>
        <request index="1" response="01" foes="01" cont="0"/>
    </junction>
    <junction id="gneJ4" type="priority" x="-28.47" y="30.00" incLanes="on_ramp_0" intLanes=":gneJ4_0_0" shape="-28.47,30.00 -24.80,20.70 -25.60,20.42">
        <request index="0" response="0" foes="0" cont="0"/>
    </junction>
    <junction id="gneJ5" type="priority" x="502.35" y="70.47" incLanes="long_edge_0" intLanes=":gneJ5_0_0 :gneJ5_1_0" shape="503.97,70.47 503.04,60.36 502.19,60.44 501.89,60.46 501.59,60.47 501.22,60.47 500.73,60.47 500.73,70.47">
        <request index="0" response="00" foes="00" cont="0"/>
        <request index="1" response="00" foes="00" cont="0"/>
    </junction>
    <junction id="gneJ6" type="dead_end" x="705.54" y="70.36" incLanes="exit_0" intLanes="" shape="705.53,60.36 705.54,70.36"/>
    <junction id="gneJ7" type="dead_end" x="700.43" y="52.10" incLanes="off_ramp_0" intLanes="" shape="699.51,42.14 700.43,52.10"/>
    <junction id="gneJ8" type="dead_end" x="-98.28" y="70.22" incLanes="" intLanes="" shape="-98.28,70.22 -98.24,60.22"/>
    <junction id="gneJ9" type="dead_end" x="-94.01" y="10.36" incLanes="" intLanes="" shape="-94.01,10.36 -91.14,0.78"/>

    <connection from="entry" to="entry_2" fromLane="0" toLane="0" via=":gneJ2_0_0" dir="s" state="M"/>
    <connection from="entry_2" to="long_edge" fromLane="0" toLane="0" via=":gneJ3_1_0" dir="s" state="m"/>
    <connection from="long_edge" to="off_ramp" fromLane="0" toLane="0" via=":gneJ5_0_0" dir="R" state="M"/>
    <connection from="long_edge" to="exit" fromLane="0" toLane="0" via=":gneJ5_1_0" dir="s" state="M"/>
    <connection from="on_ramp" to="on_ramp_2" fromLane="0" toLane="0" via=":gneJ4_0_0" dir="s" state="M"/>
    <connection from="on_ramp_2" to="long_edge" fromLane="0" toLane="0" via=":gneJ3_0_0" dir="s" state="M"/>

    <connection from=":gneJ2_0" to="entry_2" fromLane="0" toLane="0" dir="s" state="M"/>
    <connection from=":gneJ3_0" to="long_edge" fromLane="0" toLane="0" dir="s" state="M"/>
    <connection from=":gneJ3_1" to="long_edge" fromLane="0" toLane="0" dir="s" state="M"/>
    <connection from=":gneJ4_0" to="on_ramp_2" fromLane="0" toLane="0" dir="s" state="M"/>
    <connection from=":gneJ5_0" to="off_ramp" fromLane="0" toLane="0" dir="R" state="M"/>
    <connection from=":gneJ5_1" to="exit" fromLane="0" toLane="0" dir="s" state="M"/>

</net>
